/*---------------------------------------------------------------------------*\
  =========                 |
  \\      /  F ield         | OpenFOAM: The Open Source CFD Toolbox
   \\    /   O peration     | Website:  https://openfoam.org
    \\  /    A nd           | Version:  7
     \\/     M anipulation  |
\*---------------------------------------------------------------------------*/
Build  : 7
Exec   : simpleFoam -parallel
Date   : Aug 19 2022
Time   : 11:47:02
Host   : "6300l-146216-l.mobility.unimelb.net.au"
PID    : 7348
I/O    : uncollated
Case   : /home/unimelb.edu.au/lcampoli/CFD/myTurbulenceModels/testCases/T3A/EARSMTrans
nProcs : 2
Slaves : 1("6300l-146216-l.mobility.unimelb.net.au.7349")
Pstream initialized with:
    floatTransfer      : 0
    nProcsSimpleSum    : 0
    commsType          : nonBlocking
    polling iterations : 0
sigFpe : Enabling floating point exception trapping (FOAM_SIGFPE).
fileModificationChecking : Monitoring run-time modified files using timeStampMaster (fileModificationSkew 10)
allowSystemOperations : Allowing user-supplied system call operations

// * * * * * * * * * * * * * * * * * * * * * * * * * * * * * * * * * * * * * //
Create time

Create mesh for time = 0


SIMPLE: No convergence criteria found

Reading field p

Reading field U

Reading/calculating face flux field phi

Selecting incompressible transport model Newtonian
Selecting turbulence model type RAS
Selecting RAS turbulence model EARSMTrans
Selecting patchDistMethod meshWave
bounding k, min: 0 max: 0.1 average: 0.1
EARSMTransCoeffs
{
    betaStar        0.09;
    alphaK          1.01;
    alphaOmega      0.5;
    beta            0.075;
    sigmaD          0.52;
    gamma           0.555556;
    Ctau            6;
    CSS             2.75;
    CT              1.8125;
    AT              1;
    productionLimiter false;
}

No MRF models present

No finite volume options present

Starting time loop

wallShearStress wallShearStress:
    processing all wall patches

Reading surface description:
    wall

Time = 1

DILUPBiCG:  Solving for Ux, Initial residual = 1, Final residual = 0.000676689, No Iterations 1
DILUPBiCG:  Solving for Uy, Initial residual = 1, Final residual = 0.000236817, No Iterations 1
GAMG:  Solving for p, Initial residual = 1, Final residual = 0.000983294, No Iterations 17
GAMG:  Solving for p, Initial residual = 9.59348e-05, Final residual = 8.65923e-08, No Iterations 34
time step continuity errors : sum local = 7.32648e-09, global = 2.1855e-09, cumulative = 2.1855e-09
DILUPBiCG:  Solving for omega, Initial residual = 0.049148, Final residual = 8.49995e-06, No Iterations 1
DILUPBiCG:  Solving for k, Initial residual = 1, Final residual = 0.000279028, No Iterations 1
bounding k, min: 0 max: 0.102384 average: 0.0990481
ExecutionTime = 0.6 s  ClockTime = 1 s

Time = 2

DILUPBiCG:  Solving for Ux, Initial residual = 0.447006, Final residual = 2.47031e-05, No Iterations 2
DILUPBiCG:  Solving for Uy, Initial residual = 0.434748, Final residual = 3.41246e-05, No Iterations 3
GAMG:  Solving for p, Initial residual = 0.350656, Final residual = 0.000341114, No Iterations 18
GAMG:  Solving for p, Initial residual = 8.83983e-05, Final residual = 3.66952e-07, No Iterations 100
time step continuity errors : sum local = 1.45833e-07, global = -2.27895e-08, cumulative = -2.0604e-08
DILUPBiCG:  Solving for omega, Initial residual = 0.00324093, Final residual = 6.63207e-07, No Iterations 1
DILUPBiCG:  Solving for k, Initial residual = 0.324847, Final residual = 0.00018553, No Iterations 1
bounding k, min: 0 max: 0.101033 average: 0.0975678
ExecutionTime = 1.2 s  ClockTime = 1 s

Time = 3

DILUPBiCG:  Solving for Ux, Initial residual = 0.0795198, Final residual = 1.25725e-05, No Iterations 2
DILUPBiCG:  Solving for Uy, Initial residual = 0.204179, Final residual = 2.9036e-05, No Iterations 3
GAMG:  Solving for p, Initial residual = 0.505232, Final residual = 0.00042772, No Iterations 11
GAMG:  Solving for p, Initial residual = 0.000275463, Final residual = 2.66795e-07, No Iterations 92
time step continuity errors : sum local = 1.12443e-07, global = 1.60507e-08, cumulative = -4.55328e-09
DILUPBiCG:  Solving for omega, Initial residual = 0.00194982, Final residual = 4.10636e-07, No Iterations 1
DILUPBiCG:  Solving for k, Initial residual = 0.124166, Final residual = 2.3807e-06, No Iterations 2
bounding k, min: 0 max: 0.101795 average: 0.0964067
ExecutionTime = 1.76 s  ClockTime = 2 s

Time = 4

DILUPBiCG:  Solving for Ux, Initial residual = 0.0353281, Final residual = 9.12543e-06, No Iterations 2
DILUPBiCG:  Solving for Uy, Initial residual = 0.0905052, Final residual = 1.94551e-05, No Iterations 3
GAMG:  Solving for p, Initial residual = 0.444292, Final residual = 0.000362007, No Iterations 12
GAMG:  Solving for p, Initial residual = 0.00032316, Final residual = 6.8889e-07, No Iterations 100
time step continuity errors : sum local = 2.43333e-07, global = 3.61076e-08, cumulative = 3.15543e-08
DILUPBiCG:  Solving for omega, Initial residual = 0.00165298, Final residual = 3.51784e-07, No Iterations 1
DILUPBiCG:  Solving for k, Initial residual = 0.0686791, Final residual = 3.00477e-06, No Iterations 2
bounding k, min: 0 max: 0.102392 average: 0.0954462
ExecutionTime = 2.35 s  ClockTime = 2 s

Time = 5

DILUPBiCG:  Solving for Ux, Initial residual = 0.0207864, Final residual = 5.50863e-06, No Iterations 2
DILUPBiCG:  Solving for Uy, Initial residual = 0.0423867, Final residual = 1.20035e-05, No Iterations 3
GAMG:  Solving for p, Initial residual = 0.419508, Final residual = 0.000390886, No Iterations 13
GAMG:  Solving for p, Initial residual = 0.000262569, Final residual = 9.30098e-07, No Iterations 100
time step continuity errors : sum local = 3.83434e-07, global = -5.69469e-08, cumulative = -2.53926e-08
DILUPBiCG:  Solving for omega, Initial residual = 0.00162714, Final residual = 3.23987e-07, No Iterations 1
DILUPBiCG:  Solving for k, Initial residual = 0.0460727, Final residual = 3.3232e-06, No Iterations 2
bounding k, min: 0 max: 0.102791 average: 0.0946167
ExecutionTime = 2.95 s  ClockTime = 3 s

Time = 6

DILUPBiCG:  Solving for Ux, Initial residual = 0.0141714, Final residual = 3.48445e-06, No Iterations 2
DILUPBiCG:  Solving for Uy, Initial residual = 0.0266564, Final residual = 2.68511e-06, No Iterations 3
GAMG:  Solving for p, Initial residual = 0.611817, Final residual = 0.000556221, No Iterations 10
GAMG:  Solving for p, Initial residual = 0.000443358, Final residual = 4.40574e-07, No Iterations 99
time step continuity errors : sum local = 1.09903e-07, global = -1.61106e-08, cumulative = -4.15031e-08
DILUPBiCG:  Solving for omega, Initial residual = 0.00165698, Final residual = 3.08097e-07, No Iterations 1
DILUPBiCG:  Solving for k, Initial residual = 0.035103, Final residual = 2.74341e-06, No Iterations 2
bounding k, min: 0 max: 0.103164 average: 0.0938777
ExecutionTime = 3.53 s  ClockTime = 3 s

Time = 7

DILUPBiCG:  Solving for Ux, Initial residual = 0.0109208, Final residual = 3.1663e-06, No Iterations 2
DILUPBiCG:  Solving for Uy, Initial residual = 0.0231928, Final residual = 2.23195e-06, No Iterations 3
GAMG:  Solving for p, Initial residual = 0.626798, Final residual = 0.000523241, No Iterations 11
GAMG:  Solving for p, Initial residual = 0.0003186, Final residual = 5.88355e-07, No Iterations 100
time step continuity errors : sum local = 1.77768e-07, global = 2.53758e-08, cumulative = -1.61273e-08
DILUPBiCG:  Solving for omega, Initial residual = 0.00170652, Final residual = 3.11742e-07, No Iterations 1
DILUPBiCG:  Solving for k, Initial residual = 0.0289252, Final residual = 2.83627e-06, No Iterations 2
bounding k, min: 0 max: 0.103709 average: 0.0932044
ExecutionTime = 4.1 s  ClockTime = 4 s

Time = 8

DILUPBiCG:  Solving for Ux, Initial residual = 0.00907142, Final residual = 3.10227e-06, No Iterations 2
DILUPBiCG:  Solving for Uy, Initial residual = 0.0234722, Final residual = 5.59185e-06, No Iterations 3
GAMG:  Solving for p, Initial residual = 0.521789, Final residual = 0.000401549, No Iterations 11
GAMG:  Solving for p, Initial residual = 0.000265139, Final residual = 7.00069e-07, No Iterations 100
time step continuity errors : sum local = 2.11274e-07, global = 3.06632e-08, cumulative = 1.45358e-08
DILUPBiCG:  Solving for omega, Initial residual = 0.0017401, Final residual = 3.07712e-07, No Iterations 1
DILUPBiCG:  Solving for k, Initial residual = 0.0252335, Final residual = 3.16785e-06, No Iterations 2
bounding k, min: 0 max: 0.104242 average: 0.0925791
ExecutionTime = 4.69 s  ClockTime = 5 s

Time = 9

DILUPBiCG:  Solving for Ux, Initial residual = 0.00788207, Final residual = 3.27745e-06, No Iterations 2
DILUPBiCG:  Solving for Uy, Initial residual = 0.0222333, Final residual = 4.99441e-06, No Iterations 3
GAMG:  Solving for p, Initial residual = 0.395745, Final residual = 0.000365312, No Iterations 9
GAMG:  Solving for p, Initial residual = 0.00039182, Final residual = 3.82221e-07, No Iterations 66
time step continuity errors : sum local = 7.24394e-08, global = -1.04904e-08, cumulative = 4.04543e-09
DILUPBiCG:  Solving for omega, Initial residual = 0.00174156, Final residual = 3.06445e-07, No Iterations 1
DILUPBiCG:  Solving for k, Initial residual = 0.0226432, Final residual = 2.74669e-06, No Iterations 2
bounding k, min: 0 max: 0.104727 average: 0.0919918
ExecutionTime = 5.12 s  ClockTime = 5 s

Time = 10

DILUPBiCG:  Solving for Ux, Initial residual = 0.00684512, Final residual = 2.96519e-06, No Iterations 2
DILUPBiCG:  Solving for Uy, Initial residual = 0.0165755, Final residual = 5.02583e-06, No Iterations 3
GAMG:  Solving for p, Initial residual = 0.30809, Final residual = 0.000302444, No Iterations 12
GAMG:  Solving for p, Initial residual = 0.000339034, Final residual = 1.22483e-06, No Iterations 100
time step continuity errors : sum local = 1.92999e-07, global = 2.80722e-08, cumulative = 3.21177e-08
DILUPBiCG:  Solving for omega, Initial residual = 0.00170386, Final residual = 3.02044e-07, No Iterations 1
DILUPBiCG:  Solving for k, Initial residual = 0.0206784, Final residual = 1.88851e-06, No Iterations 2
bounding k, min: 0 max: 0.105093 average: 0.0914357
ExecutionTime = 5.7 s  ClockTime = 6 s

Time = 11

DILUPBiCG:  Solving for Ux, Initial residual = 0.00594039, Final residual = 2.45163e-06, No Iterations 2
DILUPBiCG:  Solving for Uy, Initial residual = 0.0109452, Final residual = 2.7209e-06, No Iterations 3
GAMG:  Solving for p, Initial residual = 0.286179, Final residual = 0.000254793, No Iterations 12
GAMG:  Solving for p, Initial residual = 0.000265821, Final residual = 1.27793e-06, No Iterations 100
time step continuity errors : sum local = 1.80073e-07, global = 2.68286e-08, cumulative = 5.89463e-08
DILUPBiCG:  Solving for omega, Initial residual = 0.0016174, Final residual = 2.96675e-07, No Iterations 1
DILUPBiCG:  Solving for k, Initial residual = 0.0191705, Final residual = 4.79279e-06, No Iterations 2
bounding k, min: 0 max: 0.105381 average: 0.0909037
ExecutionTime = 6.28 s  ClockTime = 6 s

Time = 12

DILUPBiCG:  Solving for Ux, Initial residual = 0.00527074, Final residual = 2.16765e-06, No Iterations 2
DILUPBiCG:  Solving for Uy, Initial residual = 0.00794736, Final residual = 1.08923e-06, No Iterations 3
GAMG:  Solving for p, Initial residual = 0.307666, Final residual = 0.000269446, No Iterations 10
GAMG:  Solving for p, Initial residual = 0.000239573, Final residual = 3.11931e-07, No Iterations 100
time step continuity errors : sum local = 4.57732e-08, global = -7.12469e-09, cumulative = 5.18216e-08
DILUPBiCG:  Solving for omega, Initial residual = 0.00147911, Final residual = 2.85685e-07, No Iterations 1
DILUPBiCG:  Solving for k, Initial residual = 0.0178777, Final residual = 2.17579e-06, No Iterations 2
bounding k, min: 0 max: 0.105714 average: 0.0903935
ExecutionTime = 6.87 s  ClockTime = 7 s

Time = 13

DILUPBiCG:  Solving for Ux, Initial residual = 0.00483068, Final residual = 2.12809e-06, No Iterations 2
DILUPBiCG:  Solving for Uy, Initial residual = 0.0086401, Final residual = 1.40295e-06, No Iterations 3
GAMG:  Solving for p, Initial residual = 0.286104, Final residual = 0.000252639, No Iterations 12
GAMG:  Solving for p, Initial residual = 0.000196332, Final residual = 1.91655e-07, No Iterations 99
time step continuity errors : sum local = 3.23509e-08, global = 4.68467e-09, cumulative = 5.65063e-08
DILUPBiCG:  Solving for omega, Initial residual = 0.00130287, Final residual = 2.68661e-07, No Iterations 1
DILUPBiCG:  Solving for k, Initial residual = 0.0167585, Final residual = 3.46241e-06, No Iterations 2
bounding k, min: 0 max: 0.10598 average: 0.0899022
ExecutionTime = 7.45 s  ClockTime = 7 s

Time = 14

DILUPBiCG:  Solving for Ux, Initial residual = 0.004508, Final residual = 2.15739e-06, No Iterations 2
DILUPBiCG:  Solving for Uy, Initial residual = 0.00926596, Final residual = 2.7636e-06, No Iterations 3
GAMG:  Solving for p, Initial residual = 0.254277, Final residual = 0.000182323, No Iterations 11
GAMG:  Solving for p, Initial residual = 0.000173632, Final residual = 2.09692e-07, No Iterations 100
time step continuity errors : sum local = 3.09734e-08, global = 4.92993e-09, cumulative = 6.14362e-08
DILUPBiCG:  Solving for omega, Initial residual = 0.00111485, Final residual = 2.5272e-07, No Iterations 1
DILUPBiCG:  Solving for k, Initial residual = 0.0158181, Final residual = 1.6406e-06, No Iterations 2
bounding k, min: 0 max: 0.106188 average: 0.0894266
ExecutionTime = 8.04 s  ClockTime = 8 s

Time = 15

DILUPBiCG:  Solving for Ux, Initial residual = 0.00419873, Final residual = 2.11908e-06, No Iterations 2
DILUPBiCG:  Solving for Uy, Initial residual = 0.00916585, Final residual = 2.30439e-06, No Iterations 3
GAMG:  Solving for p, Initial residual = 0.213002, Final residual = 0.000165747, No Iterations 11
GAMG:  Solving for p, Initial residual = 0.000206328, Final residual = 3.2153e-07, No Iterations 100
time step continuity errors : sum local = 3.7294e-08, global = -5.476e-09, cumulative = 5.59602e-08
DILUPBiCG:  Solving for omega, Initial residual = 0.00093881, Final residual = 2.33995e-07, No Iterations 1
DILUPBiCG:  Solving for k, Initial residual = 0.0149169, Final residual = 2.63169e-06, No Iterations 2
bounding k, min: 0 max: 0.106358 average: 0.0889658
ExecutionTime = 8.62 s  ClockTime = 9 s

Time = 16

DILUPBiCG:  Solving for Ux, Initial residual = 0.0038791, Final residual = 1.97247e-06, No Iterations 2
DILUPBiCG:  Solving for Uy, Initial residual = 0.00673892, Final residual = 3.19456e-06, No Iterations 3
GAMG:  Solving for p, Initial residual = 0.191887, Final residual = 0.00014102, No Iterations 12
GAMG:  Solving for p, Initial residual = 0.000183765, Final residual = 7.64017e-07, No Iterations 100
time step continuity errors : sum local = 7.97907e-08, global = 1.22156e-08, cumulative = 6.81758e-08
DILUPBiCG:  Solving for omega, Initial residual = 0.00078839, Final residual = 2.17462e-07, No Iterations 1
DILUPBiCG:  Solving for k, Initial residual = 0.0141465, Final residual = 1.96007e-06, No Iterations 2
bounding k, min: 0 max: 0.106514 average: 0.0885191
ExecutionTime = 9.21 s  ClockTime = 9 s

Time = 17

DILUPBiCG:  Solving for Ux, Initial residual = 0.00359171, Final residual = 1.82434e-06, No Iterations 2
DILUPBiCG:  Solving for Uy, Initial residual = 0.00649155, Final residual = 1.61081e-06, No Iterations 3
GAMG:  Solving for p, Initial residual = 0.188634, Final residual = 0.000141569, No Iterations 10
GAMG:  Solving for p, Initial residual = 0.000152283, Final residual = 3.11394e-07, No Iterations 100
time step continuity errors : sum local = 3.6553e-08, global = 5.76665e-09, cumulative = 7.39425e-08
DILUPBiCG:  Solving for omega, Initial residual = 0.000668263, Final residual = 2.01198e-07, No Iterations 1
DILUPBiCG:  Solving for k, Initial residual = 0.0134463, Final residual = 2.66808e-06, No Iterations 2
bounding k, min: 0 max: 0.106666 average: 0.0880844
ExecutionTime = 9.82 s  ClockTime = 10 s

Time = 18

DILUPBiCG:  Solving for Ux, Initial residual = 0.00337076, Final residual = 1.7456e-06, No Iterations 2
DILUPBiCG:  Solving for Uy, Initial residual = 0.00567681, Final residual = 1.66913e-06, No Iterations 3
GAMG:  Solving for p, Initial residual = 0.185672, Final residual = 0.000127822, No Iterations 11
GAMG:  Solving for p, Initial residual = 0.000117881, Final residual = 1.14669e-07, No Iterations 94
time step continuity errors : sum local = 1.52938e-08, global = 2.25746e-09, cumulative = 7.61999e-08
DILUPBiCG:  Solving for omega, Initial residual = 0.000576365, Final residual = 1.86164e-07, No Iterations 1
DILUPBiCG:  Solving for k, Initial residual = 0.0128112, Final residual = 1.17908e-06, No Iterations 2
bounding k, min: 0 max: 0.106816 average: 0.0876606
ExecutionTime = 10.38 s  ClockTime = 10 s

Time = 19

DILUPBiCG:  Solving for Ux, Initial residual = 0.00320296, Final residual = 1.72248e-06, No Iterations 2
DILUPBiCG:  Solving for Uy, Initial residual = 0.00567723, Final residual = 3.12435e-06, No Iterations 3
GAMG:  Solving for p, Initial residual = 0.170437, Final residual = 0.000111812, No Iterations 11
GAMG:  Solving for p, Initial residual = 0.000106226, Final residual = 2.73295e-07, No Iterations 100
time step continuity errors : sum local = 3.6448e-08, global = 5.61907e-09, cumulative = 8.1819e-08
DILUPBiCG:  Solving for omega, Initial residual = 0.000507926, Final residual = 1.73212e-07, No Iterations 1
DILUPBiCG:  Solving for k, Initial residual = 0.0122234, Final residual = 1.68897e-06, No Iterations 2
bounding k, min: 0 max: 0.106962 average: 0.0872476
ExecutionTime = 10.98 s  ClockTime = 11 s

Time = 20

DILUPBiCG:  Solving for Ux, Initial residual = 0.00305311, Final residual = 1.69972e-06, No Iterations 2
DILUPBiCG:  Solving for Uy, Initial residual = 0.0066336, Final residual = 1.54794e-06, No Iterations 3
GAMG:  Solving for p, Initial residual = 0.172552, Final residual = 0.000156727, No Iterations 9
GAMG:  Solving for p, Initial residual = 0.000167953, Final residual = 1.65526e-07, No Iterations 95
time step continuity errors : sum local = 1.99353e-08, global = 3.24269e-09, cumulative = 8.50617e-08
DILUPBiCG:  Solving for omega, Initial residual = 0.000456487, Final residual = 1.62838e-07, No Iterations 1
DILUPBiCG:  Solving for k, Initial residual = 0.0116812, Final residual = 1.91052e-06, No Iterations 2
bounding k, min: 0 max: 0.107099 average: 0.0868451
ExecutionTime = 11.54 s  ClockTime = 11 s

Time = 21

DILUPBiCG:  Solving for Ux, Initial residual = 0.00290031, Final residual = 1.64799e-06, No Iterations 2
DILUPBiCG:  Solving for Uy, Initial residual = 0.005673, Final residual = 2.35694e-07, No Iterations 4
GAMG:  Solving for p, Initial residual = 0.165038, Final residual = 0.000161348, No Iterations 10
GAMG:  Solving for p, Initial residual = 0.000182907, Final residual = 1.80806e-07, No Iterations 61
time step continuity errors : sum local = 2.03282e-08, global = -2.99972e-09, cumulative = 8.2062e-08
DILUPBiCG:  Solving for omega, Initial residual = 0.000417567, Final residual = 1.53101e-07, No Iterations 1
DILUPBiCG:  Solving for k, Initial residual = 0.0111995, Final residual = 1.8569e-06, No Iterations 2
bounding k, min: 0 max: 0.107228 average: 0.0864519
ExecutionTime = 11.97 s  ClockTime = 12 s

Time = 22

DILUPBiCG:  Solving for Ux, Initial residual = 0.00274971, Final residual = 1.57768e-06, No Iterations 2
DILUPBiCG:  Solving for Uy, Initial residual = 0.00469186, Final residual = 1.26744e-06, No Iterations 3
GAMG:  Solving for p, Initial residual = 0.146929, Final residual = 0.000126971, No Iterations 10
GAMG:  Solving for p, Initial residual = 0.000138932, Final residual = 1.37121e-07, No Iterations 63
time step continuity errors : sum local = 1.55587e-08, global = -2.25095e-09, cumulative = 7.9811e-08
DILUPBiCG:  Solving for omega, Initial residual = 0.000387755, Final residual = 1.45194e-07, No Iterations 1
DILUPBiCG:  Solving for k, Initial residual = 0.0107651, Final residual = 2.46948e-06, No Iterations 2
bounding k, min: 0 max: 0.107349 average: 0.0860669
ExecutionTime = 12.4 s  ClockTime = 12 s

Time = 23

DILUPBiCG:  Solving for Ux, Initial residual = 0.00261731, Final residual = 1.51882e-06, No Iterations 2
DILUPBiCG:  Solving for Uy, Initial residual = 0.00497256, Final residual = 3.25486e-06, No Iterations 3
GAMG:  Solving for p, Initial residual = 0.14673, Final residual = 0.00013761, No Iterations 9
GAMG:  Solving for p, Initial residual = 0.000141435, Final residual = 1.41222e-07, No Iterations 52
time step continuity errors : sum local = 1.66388e-08, global = 2.35356e-09, cumulative = 8.21646e-08
DILUPBiCG:  Solving for omega, Initial residual = 0.000363995, Final residual = 1.37799e-07, No Iterations 1
DILUPBiCG:  Solving for k, Initial residual = 0.010326, Final residual = 1.57629e-06, No Iterations 2
bounding k, min: 0 max: 0.107467 average: 0.0856906
ExecutionTime = 12.82 s  ClockTime = 13 s

Time = 24

DILUPBiCG:  Solving for Ux, Initial residual = 0.00250876, Final residual = 1.48145e-06, No Iterations 2
DILUPBiCG:  Solving for Uy, Initial residual = 0.00529347, Final residual = 1.80603e-07, No Iterations 4
GAMG:  Solving for p, Initial residual = 0.157046, Final residual = 0.000103743, No Iterations 10
GAMG:  Solving for p, Initial residual = 0.00010319, Final residual = 1.02142e-07, No Iterations 76
time step continuity errors : sum local = 1.24297e-08, global = -1.77699e-09, cumulative = 8.03876e-08
DILUPBiCG:  Solving for omega, Initial residual = 0.00034469, Final residual = 1.32453e-07, No Iterations 1
DILUPBiCG:  Solving for k, Initial residual = 0.00992932, Final residual = 9.26227e-07, No Iterations 2
bounding k, min: 0 max: 0.107582 average: 0.0853227
ExecutionTime = 13.36 s  ClockTime = 13 s

Time = 25

DILUPBiCG:  Solving for Ux, Initial residual = 0.00241497, Final residual = 1.45509e-06, No Iterations 2
DILUPBiCG:  Solving for Uy, Initial residual = 0.00436661, Final residual = 1.61789e-06, No Iterations 3
GAMG:  Solving for p, Initial residual = 0.145115, Final residual = 0.000107965, No Iterations 9
GAMG:  Solving for p, Initial residual = 0.000109987, Final residual = 1.09158e-07, No Iterations 64
time step continuity errors : sum local = 1.31092e-08, global = 1.86299e-09, cumulative = 8.22506e-08
DILUPBiCG:  Solving for omega, Initial residual = 0.000328362, Final residual = 1.27571e-07, No Iterations 1
DILUPBiCG:  Solving for k, Initial residual = 0.00959207, Final residual = 2.02325e-06, No Iterations 2
bounding k, min: 0 max: 0.107693 average: 0.0849624
ExecutionTime = 13.79 s  ClockTime = 14 s

Time = 26

DILUPBiCG:  Solving for Ux, Initial residual = 0.00232415, Final residual = 1.42518e-06, No Iterations 2
DILUPBiCG:  Solving for Uy, Initial residual = 0.00441894, Final residual = 9.62191e-07, No Iterations 3
GAMG:  Solving for p, Initial residual = 0.130134, Final residual = 8.43953e-05, No Iterations 10
GAMG:  Solving for p, Initial residual = 8.96249e-05, Final residual = 8.79669e-08, No Iterations 70
time step continuity errors : sum local = 1.01815e-08, global = 1.50119e-09, cumulative = 8.37518e-08
DILUPBiCG:  Solving for omega, Initial residual = 0.000314258, Final residual = 1.23215e-07, No Iterations 1
DILUPBiCG:  Solving for k, Initial residual = 0.00926315, Final residual = 1.32755e-06, No Iterations 2
bounding k, min: 0 max: 0.107801 average: 0.0846089
ExecutionTime = 14.28 s  ClockTime = 14 s

Time = 27

DILUPBiCG:  Solving for Ux, Initial residual = 0.00223375, Final residual = 1.3875e-06, No Iterations 2
DILUPBiCG:  Solving for Uy, Initial residual = 0.00478633, Final residual = 7.1844e-07, No Iterations 3
GAMG:  Solving for p, Initial residual = 0.133963, Final residual = 0.000104359, No Iterations 10
GAMG:  Solving for p, Initial residual = 0.000112424, Final residual = 1.08944e-07, No Iterations 83
time step continuity errors : sum local = 1.22553e-08, global = -1.81759e-09, cumulative = 8.19342e-08
DILUPBiCG:  Solving for omega, Initial residual = 0.000301942, Final residual = 1.17639e-07, No Iterations 1
DILUPBiCG:  Solving for k, Initial residual = 0.0089638, Final residual = 9.0383e-07, No Iterations 2
bounding k, min: 0 max: 0.107957 average: 0.0842621
ExecutionTime = 14.81 s  ClockTime = 15 s

Time = 28

DILUPBiCG:  Solving for Ux, Initial residual = 0.00214899, Final residual = 1.34866e-06, No Iterations 2
DILUPBiCG:  Solving for Uy, Initial residual = 0.00447252, Final residual = 8.14817e-07, No Iterations 3
GAMG:  Solving for p, Initial residual = 0.137341, Final residual = 0.000126316, No Iterations 9
GAMG:  Solving for p, Initial residual = 0.000131884, Final residual = 1.30053e-07, No Iterations 71
time step continuity errors : sum local = 1.49138e-08, global = 2.19792e-09, cumulative = 8.41321e-08
DILUPBiCG:  Solving for omega, Initial residual = 0.000290903, Final residual = 1.12215e-07, No Iterations 1
DILUPBiCG:  Solving for k, Initial residual = 0.00866157, Final residual = 1.63805e-06, No Iterations 2
bounding k, min: 0 max: 0.108103 average: 0.0839219
ExecutionTime = 15.27 s  ClockTime = 15 s

Time = 29

DILUPBiCG:  Solving for Ux, Initial residual = 0.00207385, Final residual = 1.31622e-06, No Iterations 2
DILUPBiCG:  Solving for Uy, Initial residual = 0.00373738, Final residual = 2.52444e-06, No Iterations 3
GAMG:  Solving for p, Initial residual = 0.127208, Final residual = 0.000114002, No Iterations 9
GAMG:  Solving for p, Initial residual = 0.000116347, Final residual = 1.16283e-07, No Iterations 50
time step continuity errors : sum local = 1.35725e-08, global = 2.00741e-09, cumulative = 8.61395e-08
DILUPBiCG:  Solving for omega, Initial residual = 0.000280974, Final residual = 1.08524e-07, No Iterations 1
DILUPBiCG:  Solving for k, Initial residual = 0.00839584, Final residual = 9.28114e-07, No Iterations 2
bounding k, min: 0 max: 0.10824 average: 0.0835879
ExecutionTime = 15.64 s  ClockTime = 16 s

Time = 30

DILUPBiCG:  Solving for Ux, Initial residual = 0.00200725, Final residual = 1.29099e-06, No Iterations 2
DILUPBiCG:  Solving for Uy, Initial residual = 0.00388006, Final residual = 1.59976e-07, No Iterations 4
GAMG:  Solving for p, Initial residual = 0.11996, Final residual = 0.000109827, No Iterations 9
GAMG:  Solving for p, Initial residual = 0.000112486, Final residual = 1.09019e-07, No Iterations 47
time step continuity errors : sum local = 1.2731e-08, global = -1.79042e-09, cumulative = 8.43491e-08
DILUPBiCG:  Solving for omega, Initial residual = 0.000271851, Final residual = 1.04672e-07, No Iterations 1
DILUPBiCG:  Solving for k, Initial residual = 0.00814048, Final residual = 1.38294e-06, No Iterations 2
bounding k, min: 0 max: 0.108369 average: 0.0832604
ExecutionTime = 16.01 s  ClockTime = 16 s

Time = 31

DILUPBiCG:  Solving for Ux, Initial residual = 0.00194503, Final residual = 1.26782e-06, No Iterations 2
DILUPBiCG:  Solving for Uy, Initial residual = 0.00425603, Final residual = 3.07547e-06, No Iterations 3
GAMG:  Solving for p, Initial residual = 0.123223, Final residual = 0.000105797, No Iterations 9
GAMG:  Solving for p, Initial residual = 0.000110479, Final residual = 1.06718e-07, No Iterations 65
time step continuity errors : sum local = 1.22113e-08, global = 1.83295e-09, cumulative = 8.6182e-08
DILUPBiCG:  Solving for omega, Initial residual = 0.000263634, Final residual = 1.01288e-07, No Iterations 1
DILUPBiCG:  Solving for k, Initial residual = 0.00790582, Final residual = 2.05835e-06, No Iterations 2
bounding k, min: 0 max: 0.10849 average: 0.0829384
ExecutionTime = 16.46 s  ClockTime = 16 s

Time = 32

DILUPBiCG:  Solving for Ux, Initial residual = 0.0018846, Final residual = 1.2427e-06, No Iterations 2
DILUPBiCG:  Solving for Uy, Initial residual = 0.00429916, Final residual = 2.80597e-06, No Iterations 3
GAMG:  Solving for p, Initial residual = 0.127618, Final residual = 0.000121314, No Iterations 9
GAMG:  Solving for p, Initial residual = 0.000126753, Final residual = 1.22957e-07, No Iterations 70
time step continuity errors : sum local = 1.40204e-08, global = -2.06102e-09, cumulative = 8.4121e-08
DILUPBiCG:  Solving for omega, Initial residual = 0.000255787, Final residual = 9.70246e-08, No Iterations 1
DILUPBiCG:  Solving for k, Initial residual = 0.00767946, Final residual = 3.75582e-06, No Iterations 2
bounding k, min: 0 max: 0.108603 average: 0.0826218
ExecutionTime = 16.92 s  ClockTime = 17 s

Time = 33

DILUPBiCG:  Solving for Ux, Initial residual = 0.00182651, Final residual = 1.21598e-06, No Iterations 2
DILUPBiCG:  Solving for Uy, Initial residual = 0.0034223, Final residual = 8.46356e-07, No Iterations 3
GAMG:  Solving for p, Initial residual = 0.115916, Final residual = 0.000106901, No Iterations 9
GAMG:  Solving for p, Initial residual = 0.000110649, Final residual = 1.0705e-07, No Iterations 68
time step continuity errors : sum local = 1.22837e-08, global = -1.79036e-09, cumulative = 8.23307e-08
DILUPBiCG:  Solving for omega, Initial residual = 0.000248547, Final residual = 9.33654e-08, No Iterations 1
DILUPBiCG:  Solving for k, Initial residual = 0.00746251, Final residual = 8.83276e-08, No Iterations 4
bounding k, min: 0 max: 0.108711 average: 0.0823104
ExecutionTime = 17.37 s  ClockTime = 17 s

Time = 34

DILUPBiCG:  Solving for Ux, Initial residual = 0.00177232, Final residual = 1.1908e-06, No Iterations 2
DILUPBiCG:  Solving for Uy, Initial residual = 0.00336411, Final residual = 2.49122e-06, No Iterations 3
GAMG:  Solving for p, Initial residual = 0.104154, Final residual = 9.1101e-05, No Iterations 9
GAMG:  Solving for p, Initial residual = 9.3823e-05, Final residual = 9.28842e-08, No Iterations 63
time step continuity errors : sum local = 1.0699e-08, global = 1.46722e-09, cumulative = 8.37979e-08
DILUPBiCG:  Solving for omega, Initial residual = 0.000241733, Final residual = 9.03108e-08, No Iterations 1
DILUPBiCG:  Solving for k, Initial residual = 0.00726552, Final residual = 2.44815e-06, No Iterations 2
bounding k, min: 0 max: 0.108812 average: 0.0820043
ExecutionTime = 17.81 s  ClockTime = 18 s

Time = 35

DILUPBiCG:  Solving for Ux, Initial residual = 0.00172272, Final residual = 1.16867e-06, No Iterations 2
DILUPBiCG:  Solving for Uy, Initial residual = 0.00364588, Final residual = 1.47489e-07, No Iterations 4
GAMG:  Solving for p, Initial residual = 0.105529, Final residual = 8.04113e-05, No Iterations 10
GAMG:  Solving for p, Initial residual = 8.3099e-05, Final residual = 8.11064e-08, No Iterations 66
time step continuity errors : sum local = 9.28011e-09, global = -1.35203e-09, cumulative = 8.24458e-08
DILUPBiCG:  Solving for omega, Initial residual = 0.000235378, Final residual = 8.71631e-08, No Iterations 1
DILUPBiCG:  Solving for k, Initial residual = 0.00706653, Final residual = 2.3561e-06, No Iterations 2
bounding k, min: 0 max: 0.108907 average: 0.0817037
ExecutionTime = 18.27 s  ClockTime = 18 s

Time = 36

DILUPBiCG:  Solving for Ux, Initial residual = 0.00167665, Final residual = 1.1487e-06, No Iterations 2
DILUPBiCG:  Solving for Uy, Initial residual = 0.00395656, Final residual = 4.51022e-07, No Iterations 4
GAMG:  Solving for p, Initial residual = 0.116054, Final residual = 0.000110092, No Iterations 9
GAMG:  Solving for p, Initial residual = 0.000114575, Final residual = 1.12275e-07, No Iterations 66
time step continuity errors : sum local = 1.27018e-08, global = 1.8848e-09, cumulative = 8.43306e-08
DILUPBiCG:  Solving for omega, Initial residual = 0.000229437, Final residual = 8.43554e-08, No Iterations 1
DILUPBiCG:  Solving for k, Initial residual = 0.00687237, Final residual = 2.3884e-06, No Iterations 2
bounding k, min: 0 max: 0.108998 average: 0.0814079
ExecutionTime = 18.71 s  ClockTime = 19 s

Time = 37

DILUPBiCG:  Solving for Ux, Initial residual = 0.00163273, Final residual = 1.12899e-06, No Iterations 2
DILUPBiCG:  Solving for Uy, Initial residual = 0.0035969, Final residual = 1.89698e-07, No Iterations 4
GAMG:  Solving for p, Initial residual = 0.116565, Final residual = 7.79493e-05, No Iterations 10
GAMG:  Solving for p, Initial residual = 8.05299e-05, Final residual = 7.92091e-08, No Iterations 79
time step continuity errors : sum local = 9.02138e-09, global = -1.37908e-09, cumulative = 8.29516e-08
DILUPBiCG:  Solving for omega, Initial residual = 0.000223907, Final residual = 8.11241e-08, No Iterations 1
DILUPBiCG:  Solving for k, Initial residual = 0.00670329, Final residual = 3.4652e-06, No Iterations 2
bounding k, min: 0 max: 0.109084 average: 0.0811171
ExecutionTime = 19.22 s  ClockTime = 19 s

Time = 38

DILUPBiCG:  Solving for Ux, Initial residual = 0.00159029, Final residual = 1.10887e-06, No Iterations 2
DILUPBiCG:  Solving for Uy, Initial residual = 0.0030429, Final residual = 1.1381e-07, No Iterations 4
GAMG:  Solving for p, Initial residual = 0.102531, Final residual = 6.96683e-05, No Iterations 10
GAMG:  Solving for p, Initial residual = 7.15921e-05, Final residual = 6.92135e-08, No Iterations 78
time step continuity errors : sum local = 7.93329e-09, global = 1.22043e-09, cumulative = 8.4172e-08
DILUPBiCG:  Solving for omega, Initial residual = 0.00021871, Final residual = 7.9025e-08, No Iterations 1
DILUPBiCG:  Solving for k, Initial residual = 0.00654534, Final residual = 2.69287e-06, No Iterations 2
bounding k, min: 0 max: 0.109165 average: 0.0808306
ExecutionTime = 19.73 s  ClockTime = 20 s

Time = 39

DILUPBiCG:  Solving for Ux, Initial residual = 0.00154982, Final residual = 1.08934e-06, No Iterations 2
DILUPBiCG:  Solving for Uy, Initial residual = 0.00308836, Final residual = 9.59105e-08, No Iterations 4
GAMG:  Solving for p, Initial residual = 0.0914088, Final residual = 6.87124e-05, No Iterations 10
GAMG:  Solving for p, Initial residual = 7.05646e-05, Final residual = 6.95617e-08, No Iterations 72
time step continuity errors : sum local = 8.0025e-09, global = 1.23363e-09, cumulative = 8.54056e-08
DILUPBiCG:  Solving for omega, Initial residual = 0.000213662, Final residual = 7.69455e-08, No Iterations 1
DILUPBiCG:  Solving for k, Initial residual = 0.00638787, Final residual = 2.03764e-06, No Iterations 2
bounding k, min: 0 max: 0.109243 average: 0.0805482
ExecutionTime = 20.22 s  ClockTime = 20 s

Time = 40

DILUPBiCG:  Solving for Ux, Initial residual = 0.00151179, Final residual = 1.07095e-06, No Iterations 2
DILUPBiCG:  Solving for Uy, Initial residual = 0.00332438, Final residual = 2.6599e-06, No Iterations 3
GAMG:  Solving for p, Initial residual = 0.0919946, Final residual = 6.61669e-05, No Iterations 10
GAMG:  Solving for p, Initial residual = 6.81729e-05, Final residual = 6.64683e-08, No Iterations 74
time step continuity errors : sum local = 7.61882e-09, global = 1.18899e-09, cumulative = 8.65946e-08
DILUPBiCG:  Solving for omega, Initial residual = 0.000208888, Final residual = 7.50782e-08, No Iterations 1
DILUPBiCG:  Solving for k, Initial residual = 0.00622498, Final residual = 4.54582e-06, No Iterations 2
bounding k, min: 0 max: 0.109317 average: 0.0802704
ExecutionTime = 20.72 s  ClockTime = 21 s

Time = 41

DILUPBiCG:  Solving for Ux, Initial residual = 0.00147611, Final residual = 1.05374e-06, No Iterations 2
DILUPBiCG:  Solving for Uy, Initial residual = 0.0035395, Final residual = 2.89765e-06, No Iterations 3
GAMG:  Solving for p, Initial residual = 0.101629, Final residual = 6.41417e-05, No Iterations 10
GAMG:  Solving for p, Initial residual = 6.65886e-05, Final residual = 6.51167e-08, No Iterations 80
time step continuity errors : sum local = 7.3611e-09, global = 1.16176e-09, cumulative = 8.77564e-08
DILUPBiCG:  Solving for omega, Initial residual = 0.000204326, Final residual = 7.27241e-08, No Iterations 1
DILUPBiCG:  Solving for k, Initial residual = 0.00607741, Final residual = 1.21107e-06, No Iterations 2
bounding k, min: 0 max: 0.109388 average: 0.0799967
ExecutionTime = 21.23 s  ClockTime = 21 s

Time = 42

DILUPBiCG:  Solving for Ux, Initial residual = 0.00144231, Final residual = 1.03712e-06, No Iterations 2
DILUPBiCG:  Solving for Uy, Initial residual = 0.00336462, Final residual = 2.96285e-06, No Iterations 3
GAMG:  Solving for p, Initial residual = 0.104749, Final residual = 0.000101408, No Iterations 9
GAMG:  Solving for p, Initial residual = 0.000104713, Final residual = 1.01143e-07, No Iterations 70
time step continuity errors : sum local = 1.14824e-08, global = -1.72013e-09, cumulative = 8.60362e-08
DILUPBiCG:  Solving for omega, Initial residual = 0.000199881, Final residual = 7.01836e-08, No Iterations 1
DILUPBiCG:  Solving for k, Initial residual = 0.00593428, Final residual = 2.72998e-06, No Iterations 2
bounding k, min: 0 max: 0.109455 average: 0.0797273
ExecutionTime = 21.7 s  ClockTime = 22 s

Time = 43

DILUPBiCG:  Solving for Ux, Initial residual = 0.00140984, Final residual = 1.02071e-06, No Iterations 2
DILUPBiCG:  Solving for Uy, Initial residual = 0.00280808, Final residual = 2.43732e-06, No Iterations 3
GAMG:  Solving for p, Initial residual = 0.0938345, Final residual = 5.91245e-05, No Iterations 10
GAMG:  Solving for p, Initial residual = 6.07426e-05, Final residual = 5.87546e-08, No Iterations 78
time step continuity errors : sum local = 6.70854e-09, global = 1.03117e-09, cumulative = 8.70674e-08
DILUPBiCG:  Solving for omega, Initial residual = 0.000195581, Final residual = 6.82915e-08, No Iterations 1
DILUPBiCG:  Solving for k, Initial residual = 0.00580173, Final residual = 1.06484e-06, No Iterations 2
bounding k, min: 0 max: 0.10952 average: 0.079462
ExecutionTime = 22.2 s  ClockTime = 22 s

Time = 44

DILUPBiCG:  Solving for Ux, Initial residual = 0.00137856, Final residual = 1.00416e-06, No Iterations 2
DILUPBiCG:  Solving for Uy, Initial residual = 0.00279556, Final residual = 1.96682e-06, No Iterations 3
GAMG:  Solving for p, Initial residual = 0.0839878, Final residual = 6.41324e-05, No Iterations 10
GAMG:  Solving for p, Initial residual = 6.57533e-05, Final residual = 6.45733e-08, No Iterations 69
time step continuity errors : sum local = 7.40284e-09, global = -1.12581e-09, cumulative = 8.59416e-08
DILUPBiCG:  Solving for omega, Initial residual = 0.000191828, Final residual = 6.67115e-08, No Iterations 1
DILUPBiCG:  Solving for k, Initial residual = 0.00567791, Final residual = 2.27554e-06, No Iterations 2
bounding k, min: 0 max: 0.109581 average: 0.0792004
ExecutionTime = 22.67 s  ClockTime = 23 s

Time = 45

DILUPBiCG:  Solving for Ux, Initial residual = 0.00134868, Final residual = 9.88416e-07, No Iterations 2
DILUPBiCG:  Solving for Uy, Initial residual = 0.00297354, Final residual = 1.6907e-06, No Iterations 3
GAMG:  Solving for p, Initial residual = 0.0817263, Final residual = 6.72953e-05, No Iterations 10
GAMG:  Solving for p, Initial residual = 6.90243e-05, Final residual = 6.78162e-08, No Iterations 68
time step continuity errors : sum local = 7.78423e-09, global = 1.20819e-09, cumulative = 8.71498e-08
DILUPBiCG:  Solving for omega, Initial residual = 0.000188129, Final residual = 6.52904e-08, No Iterations 1
DILUPBiCG:  Solving for k, Initial residual = 0.00556488, Final residual = 4.13795e-06, No Iterations 2
bounding k, min: 0 max: 0.10964 average: 0.0789424
ExecutionTime = 23.13 s  ClockTime = 23 s

Time = 46

DILUPBiCG:  Solving for Ux, Initial residual = 0.00132029, Final residual = 9.7292e-07, No Iterations 2
DILUPBiCG:  Solving for Uy, Initial residual = 0.00313873, Final residual = 1.63027e-06, No Iterations 3
GAMG:  Solving for p, Initial residual = 0.0853329, Final residual = 6.48635e-05, No Iterations 10
GAMG:  Solving for p, Initial residual = 6.67327e-05, Final residual = 6.61237e-08, No Iterations 72
time step continuity errors : sum local = 7.56906e-09, global = 1.18203e-09, cumulative = 8.83318e-08
DILUPBiCG:  Solving for omega, Initial residual = 0.000184626, Final residual = 6.26271e-08, No Iterations 1
DILUPBiCG:  Solving for k, Initial residual = 0.00545387, Final residual = 2.2026e-07, No Iterations 4
bounding k, min: 0 max: 0.109697 average: 0.0786877
ExecutionTime = 23.62 s  ClockTime = 24 s

Time = 47

DILUPBiCG:  Solving for Ux, Initial residual = 0.00129322, Final residual = 9.58118e-07, No Iterations 2
DILUPBiCG:  Solving for Uy, Initial residual = 0.00322794, Final residual = 1.70392e-06, No Iterations 3
GAMG:  Solving for p, Initial residual = 0.0924502, Final residual = 6.18367e-05, No Iterations 10
GAMG:  Solving for p, Initial residual = 6.37606e-05, Final residual = 6.16185e-08, No Iterations 75
time step continuity errors : sum local = 7.01823e-09, global = -1.07932e-09, cumulative = 8.72525e-08
DILUPBiCG:  Solving for omega, Initial residual = 0.000181119, Final residual = 6.12379e-08, No Iterations 1
DILUPBiCG:  Solving for k, Initial residual = 0.00535524, Final residual = 1.94196e-07, No Iterations 4
bounding k, min: 0 max: 0.109752 average: 0.0784362
ExecutionTime = 24.12 s  ClockTime = 24 s

Time = 48

DILUPBiCG:  Solving for Ux, Initial residual = 0.00126735, Final residual = 9.43717e-07, No Iterations 2
DILUPBiCG:  Solving for Uy, Initial residual = 0.00282992, Final residual = 1.50881e-06, No Iterations 3
GAMG:  Solving for p, Initial residual = 0.0888207, Final residual = 5.68285e-05, No Iterations 10
GAMG:  Solving for p, Initial residual = 5.82718e-05, Final residual = 5.63545e-08, No Iterations 74
time step continuity errors : sum local = 6.44755e-09, global = 9.80713e-10, cumulative = 8.82332e-08
DILUPBiCG:  Solving for omega, Initial residual = 0.000177865, Final residual = 5.98377e-08, No Iterations 1
DILUPBiCG:  Solving for k, Initial residual = 0.00524807, Final residual = 4.30553e-06, No Iterations 3
bounding k, min: 0 max: 0.109804 average: 0.0781883
ExecutionTime = 24.61 s  ClockTime = 25 s

Time = 49

DILUPBiCG:  Solving for Ux, Initial residual = 0.00124248, Final residual = 9.29597e-07, No Iterations 2
DILUPBiCG:  Solving for Uy, Initial residual = 0.00254915, Final residual = 1.32903e-06, No Iterations 3
GAMG:  Solving for p, Initial residual = 0.0779286, Final residual = 5.73497e-05, No Iterations 10
GAMG:  Solving for p, Initial residual = 5.87979e-05, Final residual = 5.83308e-08, No Iterations 62
time step continuity errors : sum local = 6.68251e-09, global = 9.82144e-10, cumulative = 8.92154e-08
DILUPBiCG:  Solving for omega, Initial residual = 0.00017483, Final residual = 5.84563e-08, No Iterations 1
DILUPBiCG:  Solving for k, Initial residual = 0.00515561, Final residual = 3.50174e-06, No Iterations 3
bounding k, min: 0 max: 0.109854 average: 0.0779437
ExecutionTime = 25.06 s  ClockTime = 25 s

Time = 50

DILUPBiCG:  Solving for Ux, Initial residual = 0.00121856, Final residual = 9.16096e-07, No Iterations 2
DILUPBiCG:  Solving for Uy, Initial residual = 0.00260291, Final residual = 1.25242e-06, No Iterations 3
GAMG:  Solving for p, Initial residual = 0.0712683, Final residual = 5.9964e-05, No Iterations 10
GAMG:  Solving for p, Initial residual = 6.14534e-05, Final residual = 6.13714e-08, No Iterations 55
time step continuity errors : sum local = 7.05246e-09, global = -1.0103e-09, cumulative = 8.82051e-08
DILUPBiCG:  Solving for omega, Initial residual = 0.000171852, Final residual = 5.75131e-08, No Iterations 1
DILUPBiCG:  Solving for k, Initial residual = 0.00506424, Final residual = 1.67592e-07, No Iterations 4
bounding k, min: 0 max: 0.109903 average: 0.0777024
ExecutionTime = 25.46 s  ClockTime = 25 s

Time = 51

DILUPBiCG:  Solving for Ux, Initial residual = 0.00119558, Final residual = 9.03382e-07, No Iterations 2
DILUPBiCG:  Solving for Uy, Initial residual = 0.00275458, Final residual = 1.23911e-06, No Iterations 3
GAMG:  Solving for p, Initial residual = 0.0712115, Final residual = 5.62298e-05, No Iterations 10
GAMG:  Solving for p, Initial residual = 5.7601e-05, Final residual = 5.57309e-08, No Iterations 59
time step continuity errors : sum local = 6.42102e-09, global = -9.62892e-10, cumulative = 8.72422e-08
DILUPBiCG:  Solving for omega, Initial residual = 0.000168909, Final residual = 5.62933e-08, No Iterations 1
DILUPBiCG:  Solving for k, Initial residual = 0.00497337, Final residual = 1.78285e-06, No Iterations 2
bounding k, min: 0 max: 0.109949 average: 0.0774643
ExecutionTime = 25.88 s  ClockTime = 26 s

Time = 52

DILUPBiCG:  Solving for Ux, Initial residual = 0.00117348, Final residual = 8.91262e-07, No Iterations 2
DILUPBiCG:  Solving for Uy, Initial residual = 0.00286096, Final residual = 1.27591e-06, No Iterations 3
GAMG:  Solving for p, Initial residual = 0.075789, Final residual = 4.86289e-05, No Iterations 10
GAMG:  Solving for p, Initial residual = 4.98475e-05, Final residual = 4.95412e-08, No Iterations 66
time step continuity errors : sum local = 5.70517e-09, global = 8.66308e-10, cumulative = 8.81085e-08
DILUPBiCG:  Solving for omega, Initial residual = 0.000166174, Final residual = 5.46552e-08, No Iterations 1
DILUPBiCG:  Solving for k, Initial residual = 0.0048825, Final residual = 2.91691e-07, No Iterations 4
bounding k, min: 0 max: 0.109994 average: 0.0772294
ExecutionTime = 26.35 s  ClockTime = 26 s

Time = 53

DILUPBiCG:  Solving for Ux, Initial residual = 0.00115221, Final residual = 8.79767e-07, No Iterations 2
DILUPBiCG:  Solving for Uy, Initial residual = 0.0028911, Final residual = 1.35268e-06, No Iterations 3
GAMG:  Solving for p, Initial residual = 0.0804617, Final residual = 7.51136e-05, No Iterations 9
GAMG:  Solving for p, Initial residual = 7.72296e-05, Final residual = 7.58197e-08, No Iterations 57
time step continuity errors : sum local = 8.68187e-09, global = 1.24398e-09, cumulative = 8.93525e-08
DILUPBiCG:  Solving for omega, Initial residual = 0.000163441, Final residual = 5.31951e-08, No Iterations 1
DILUPBiCG:  Solving for k, Initial residual = 0.00479478, Final residual = 3.51028e-07, No Iterations 4
bounding k, min: 0 max: 0.110038 average: 0.0769977
ExecutionTime = 26.76 s  ClockTime = 27 s

Time = 54

DILUPBiCG:  Solving for Ux, Initial residual = 0.00113176, Final residual = 8.68613e-07, No Iterations 2
DILUPBiCG:  Solving for Uy, Initial residual = 0.0027276, Final residual = 1.24073e-06, No Iterations 3
GAMG:  Solving for p, Initial residual = 0.0802307, Final residual = 7.56716e-05, No Iterations 9
GAMG:  Solving for p, Initial residual = 7.7407e-05, Final residual = 7.55487e-08, No Iterations 53
time step continuity errors : sum local = 8.6953e-09, global = 1.18975e-09, cumulative = 9.05422e-08
DILUPBiCG:  Solving for omega, Initial residual = 0.000160875, Final residual = 5.15572e-08, No Iterations 1
DILUPBiCG:  Solving for k, Initial residual = 0.0047171, Final residual = 2.57357e-07, No Iterations 4
bounding k, min: 0 max: 0.11008 average: 0.0767686
ExecutionTime = 27.16 s  ClockTime = 27 s

Time = 55

DILUPBiCG:  Solving for Ux, Initial residual = 0.00111209, Final residual = 8.57809e-07, No Iterations 2
DILUPBiCG:  Solving for Uy, Initial residual = 0.00237973, Final residual = 1.04852e-06, No Iterations 3
GAMG:  Solving for p, Initial residual = 0.0704071, Final residual = 4.91947e-05, No Iterations 10
GAMG:  Solving for p, Initial residual = 5.02412e-05, Final residual = 5.0217e-08, No Iterations 53
time step continuity errors : sum local = 5.79808e-09, global = -8.55593e-10, cumulative = 8.96866e-08
DILUPBiCG:  Solving for omega, Initial residual = 0.000158254, Final residual = 5.08266e-08, No Iterations 1
DILUPBiCG:  Solving for k, Initial residual = 0.00463574, Final residual = 4.37832e-06, No Iterations 3
bounding k, min: 0 max: 0.11012 average: 0.0765427
ExecutionTime = 27.57 s  ClockTime = 27 s

Time = 56

DILUPBiCG:  Solving for Ux, Initial residual = 0.00109314, Final residual = 8.47505e-07, No Iterations 2
DILUPBiCG:  Solving for Uy, Initial residual = 0.00237542, Final residual = 1.00707e-06, No Iterations 3
GAMG:  Solving for p, Initial residual = 0.0622456, Final residual = 5.12407e-05, No Iterations 10
GAMG:  Solving for p, Initial residual = 5.2327e-05, Final residual = 5.09807e-08, No Iterations 50
time step continuity errors : sum local = 5.90408e-09, global = 7.83666e-10, cumulative = 9.04703e-08
DILUPBiCG:  Solving for omega, Initial residual = 0.000155951, Final residual = 5.00419e-08, No Iterations 1
DILUPBiCG:  Solving for k, Initial residual = 0.00455936, Final residual = 3.50007e-06, No Iterations 3
bounding k, min: 0 max: 0.110159 average: 0.0763195
ExecutionTime = 27.97 s  ClockTime = 28 s

Time = 57

DILUPBiCG:  Solving for Ux, Initial residual = 0.00107489, Final residual = 8.37624e-07, No Iterations 2
DILUPBiCG:  Solving for Uy, Initial residual = 0.0024816, Final residual = 1.01309e-06, No Iterations 3
GAMG:  Solving for p, Initial residual = 0.0603796, Final residual = 5.03387e-05, No Iterations 10
GAMG:  Solving for p, Initial residual = 5.14528e-05, Final residual = 4.89248e-08, No Iterations 52
time step continuity errors : sum local = 5.67968e-09, global = 7.73345e-10, cumulative = 9.12436e-08
DILUPBiCG:  Solving for omega, Initial residual = 0.00015361, Final residual = 4.89888e-08, No Iterations 1
DILUPBiCG:  Solving for k, Initial residual = 0.00448674, Final residual = 3.20091e-06, No Iterations 3
bounding k, min: 0 max: 0.110196 average: 0.0760992
ExecutionTime = 28.36 s  ClockTime = 28 s

Time = 58

DILUPBiCG:  Solving for Ux, Initial residual = 0.00105729, Final residual = 8.27711e-07, No Iterations 2
DILUPBiCG:  Solving for Uy, Initial residual = 0.00257898, Final residual = 1.0432e-06, No Iterations 3
GAMG:  Solving for p, Initial residual = 0.0635829, Final residual = 4.84266e-05, No Iterations 10
GAMG:  Solving for p, Initial residual = 4.95151e-05, Final residual = 4.87187e-08, No Iterations 53
time step continuity errors : sum local = 5.67105e-09, global = -7.63997e-10, cumulative = 9.04796e-08
DILUPBiCG:  Solving for omega, Initial residual = 0.00015125, Final residual = 4.74693e-08, No Iterations 1
DILUPBiCG:  Solving for k, Initial residual = 0.0044153, Final residual = 3.33204e-06, No Iterations 3
bounding k, min: 0 max: 0.110233 average: 0.0758816
ExecutionTime = 28.77 s  ClockTime = 29 s

Time = 59

DILUPBiCG:  Solving for Ux, Initial residual = 0.00104022, Final residual = 8.17532e-07, No Iterations 2
DILUPBiCG:  Solving for Uy, Initial residual = 0.00260413, Final residual = 1.08558e-06, No Iterations 3
GAMG:  Solving for p, Initial residual = 0.0677059, Final residual = 4.84848e-05, No Iterations 10
GAMG:  Solving for p, Initial residual = 4.96317e-05, Final residual = 4.94273e-08, No Iterations 53
time step continuity errors : sum local = 5.74243e-09, global = -7.77942e-10, cumulative = 8.97017e-08
DILUPBiCG:  Solving for omega, Initial residual = 0.000149064, Final residual = 4.69736e-08, No Iterations 1
DILUPBiCG:  Solving for k, Initial residual = 0.00434489, Final residual = 4.23983e-06, No Iterations 3
bounding k, min: 0 max: 0.110268 average: 0.0756668
ExecutionTime = 29.17 s  ClockTime = 29 s

Time = 60

DILUPBiCG:  Solving for Ux, Initial residual = 0.00102367, Final residual = 8.06968e-07, No Iterations 2
DILUPBiCG:  Solving for Uy, Initial residual = 0.0026106, Final residual = 1.15584e-06, No Iterations 3
GAMG:  Solving for p, Initial residual = 0.0711467, Final residual = 5.25251e-05, No Iterations 10
GAMG:  Solving for p, Initial residual = 5.38166e-05, Final residual = 5.31195e-08, No Iterations 50
time step continuity errors : sum local = 6.1411e-09, global = 7.95649e-10, cumulative = 9.04973e-08
DILUPBiCG:  Solving for omega, Initial residual = 0.000146928, Final residual = 4.63932e-08, No Iterations 1
DILUPBiCG:  Solving for k, Initial residual = 0.0042756, Final residual = 3.6666e-06, No Iterations 3
bounding k, min: 0 max: 0.110302 average: 0.0754549
ExecutionTime = 29.55 s  ClockTime = 29 s

Time = 61

DILUPBiCG:  Solving for Ux, Initial residual = 0.00100769, Final residual = 7.95993e-07, No Iterations 2
DILUPBiCG:  Solving for Uy, Initial residual = 0.00244161, Final residual = 1.01402e-06, No Iterations 3
GAMG:  Solving for p, Initial residual = 0.06976, Final residual = 5.52615e-05, No Iterations 10
GAMG:  Solving for p, Initial residual = 5.63432e-05, Final residual = 5.52742e-08, No Iterations 48
time step continuity errors : sum local = 6.42695e-09, global = 8.57893e-10, cumulative = 9.13552e-08
DILUPBiCG:  Solving for omega, Initial residual = 0.00014478, Final residual = 4.48641e-08, No Iterations 1
DILUPBiCG:  Solving for k, Initial residual = 0.00420296, Final residual = 4.41221e-07, No Iterations 4
bounding k, min: 0 max: 0.110335 average: 0.0752457
ExecutionTime = 29.93 s  ClockTime = 30 s

Time = 62

DILUPBiCG:  Solving for Ux, Initial residual = 0.000992281, Final residual = 7.8499e-07, No Iterations 2
DILUPBiCG:  Solving for Uy, Initial residual = 0.00219406, Final residual = 8.75678e-07, No Iterations 3
GAMG:  Solving for p, Initial residual = 0.0594636, Final residual = 5.38262e-05, No Iterations 10
GAMG:  Solving for p, Initial residual = 5.47593e-05, Final residual = 5.45139e-08, No Iterations 47
time step continuity errors : sum local = 6.37271e-09, global = -8.06658e-10, cumulative = 9.05486e-08
DILUPBiCG:  Solving for omega, Initial residual = 0.000142666, Final residual = 4.36281e-08, No Iterations 1
DILUPBiCG:  Solving for k, Initial residual = 0.00414288, Final residual = 3.5955e-06, No Iterations 3
bounding k, min: 0 max: 0.110367 average: 0.0750391
ExecutionTime = 30.31 s  ClockTime = 30 s

Time = 63

DILUPBiCG:  Solving for Ux, Initial residual = 0.000977382, Final residual = 7.74273e-07, No Iterations 2
DILUPBiCG:  Solving for Uy, Initial residual = 0.00220483, Final residual = 8.60534e-07, No Iterations 3
GAMG:  Solving for p, Initial residual = 0.0535096, Final residual = 5.2326e-05, No Iterations 10
GAMG:  Solving for p, Initial residual = 5.32065e-05, Final residual = 5.13987e-08, No Iterations 47
time step continuity errors : sum local = 6.03799e-09, global = -7.90215e-10, cumulative = 8.97583e-08
DILUPBiCG:  Solving for omega, Initial residual = 0.000140774, Final residual = 4.31497e-08, No Iterations 1
DILUPBiCG:  Solving for k, Initial residual = 0.00408125, Final residual = 3.57478e-06, No Iterations 3
bounding k, min: 0 max: 0.110398 average: 0.0748354
ExecutionTime = 30.68 s  ClockTime = 31 s

Time = 64

DILUPBiCG:  Solving for Ux, Initial residual = 0.000962958, Final residual = 7.64211e-07, No Iterations 2
DILUPBiCG:  Solving for Uy, Initial residual = 0.0022861, Final residual = 8.76263e-07, No Iterations 3
GAMG:  Solving for p, Initial residual = 0.0527205, Final residual = 5.14051e-05, No Iterations 10
GAMG:  Solving for p, Initial residual = 5.23269e-05, Final residual = 4.92252e-08, No Iterations 44
time step continuity errors : sum local = 5.80121e-09, global = 7.279e-10, cumulative = 9.04862e-08
DILUPBiCG:  Solving for omega, Initial residual = 0.000138851, Final residual = 4.24653e-08, No Iterations 1
DILUPBiCG:  Solving for k, Initial residual = 0.00401988, Final residual = 3.43962e-06, No Iterations 3
bounding k, min: 0 max: 0.110428 average: 0.074634
ExecutionTime = 31.04 s  ClockTime = 31 s

Time = 65

DILUPBiCG:  Solving for Ux, Initial residual = 0.000948971, Final residual = 7.54528e-07, No Iterations 2
DILUPBiCG:  Solving for Uy, Initial residual = 0.00235299, Final residual = 9.05832e-07, No Iterations 3
GAMG:  Solving for p, Initial residual = 0.0556677, Final residual = 5.09732e-05, No Iterations 10
GAMG:  Solving for p, Initial residual = 5.20069e-05, Final residual = 5.08792e-08, No Iterations 45
time step continuity errors : sum local = 5.9962e-09, global = -7.88234e-10, cumulative = 8.9698e-08
DILUPBiCG:  Solving for omega, Initial residual = 0.000136986, Final residual = 4.18232e-08, No Iterations 1
DILUPBiCG:  Solving for k, Initial residual = 0.00396513, Final residual = 2.51718e-06, No Iterations 3
bounding k, min: 0 max: 0.110457 average: 0.0744349
ExecutionTime = 31.42 s  ClockTime = 31 s

Time = 66

DILUPBiCG:  Solving for Ux, Initial residual = 0.000935396, Final residual = 7.45348e-07, No Iterations 2
DILUPBiCG:  Solving for Uy, Initial residual = 0.00236809, Final residual = 9.3705e-07, No Iterations 3
GAMG:  Solving for p, Initial residual = 0.0587723, Final residual = 5.36478e-05, No Iterations 10
GAMG:  Solving for p, Initial residual = 5.4883e-05, Final residual = 5.35691e-08, No Iterations 45
time step continuity errors : sum local = 6.29191e-09, global = -8.16346e-10, cumulative = 8.88817e-08
DILUPBiCG:  Solving for omega, Initial residual = 0.000135092, Final residual = 4.13202e-08, No Iterations 1
DILUPBiCG:  Solving for k, Initial residual = 0.00390667, Final residual = 2.34566e-06, No Iterations 3
bounding k, min: 0 max: 0.110485 average: 0.0742382
ExecutionTime = 31.78 s  ClockTime = 32 s

Time = 67

DILUPBiCG:  Solving for Ux, Initial residual = 0.000922224, Final residual = 7.36433e-07, No Iterations 2
DILUPBiCG:  Solving for Uy, Initial residual = 0.00236604, Final residual = 9.82954e-07, No Iterations 3
GAMG:  Solving for p, Initial residual = 0.0604915, Final residual = 5.71271e-05, No Iterations 10
GAMG:  Solving for p, Initial residual = 5.85173e-05, Final residual = 5.61533e-08, No Iterations 48
time step continuity errors : sum local = 6.5682e-09, global = 8.88852e-10, cumulative = 8.97705e-08
DILUPBiCG:  Solving for omega, Initial residual = 0.000133303, Final residual = 4.01313e-08, No Iterations 1
DILUPBiCG:  Solving for k, Initial residual = 0.00385777, Final residual = 2.27764e-06, No Iterations 3
bounding k, min: 0 max: 0.110512 average: 0.0740438
ExecutionTime = 32.17 s  ClockTime = 32 s

Time = 68

DILUPBiCG:  Solving for Ux, Initial residual = 0.000909428, Final residual = 7.27897e-07, No Iterations 2
DILUPBiCG:  Solving for Uy, Initial residual = 0.00237531, Final residual = 1.03466e-06, No Iterations 3
GAMG:  Solving for p, Initial residual = 0.0644599, Final residual = 5.81758e-05, No Iterations 10
GAMG:  Solving for p, Initial residual = 5.93251e-05, Final residual = 5.7203e-08, No Iterations 47
time step continuity errors : sum local = 6.71492e-09, global = -8.32081e-10, cumulative = 8.89384e-08
DILUPBiCG:  Solving for omega, Initial residual = 0.00013151, Final residual = 3.93322e-08, No Iterations 1
DILUPBiCG:  Solving for k, Initial residual = 0.00379958, Final residual = 2.32652e-06, No Iterations 3
bounding k, min: 0 max: 0.110539 average: 0.0738517
ExecutionTime = 32.55 s  ClockTime = 32 s

Time = 69

DILUPBiCG:  Solving for Ux, Initial residual = 0.000897033, Final residual = 7.19566e-07, No Iterations 2
DILUPBiCG:  Solving for Uy, Initial residual = 0.00210147, Final residual = 8.16177e-07, No Iterations 3
GAMG:  Solving for p, Initial residual = 0.0566954, Final residual = 5.53676e-05, No Iterations 10
GAMG:  Solving for p, Initial residual = 5.61717e-05, Final residual = 5.45907e-08, No Iterations 48
time step continuity errors : sum local = 6.45855e-09, global = 8.64595e-10, cumulative = 8.9803e-08
DILUPBiCG:  Solving for omega, Initial residual = 0.000129767, Final residual = 3.86234e-08, No Iterations 1
DILUPBiCG:  Solving for k, Initial residual = 0.00375134, Final residual = 2.32123e-06, No Iterations 3
bounding k, min: 0 max: 0.110564 average: 0.0736618
ExecutionTime = 32.95 s  ClockTime = 33 s

Time = 70

DILUPBiCG:  Solving for Ux, Initial residual = 0.000884989, Final residual = 7.1137e-07, No Iterations 2
DILUPBiCG:  Solving for Uy, Initial residual = 0.00203186, Final residual = 7.73412e-07, No Iterations 3
GAMG:  Solving for p, Initial residual = 0.0485294, Final residual = 3.53901e-05, No Iterations 11
GAMG:  Solving for p, Initial residual = 3.58434e-05, Final residual = 3.35728e-08, No Iterations 52
time step continuity errors : sum local = 3.99695e-09, global = -5.64703e-10, cumulative = 8.92383e-08
DILUPBiCG:  Solving for omega, Initial residual = 0.000128068, Final residual = 3.80287e-08, No Iterations 1
DILUPBiCG:  Solving for k, Initial residual = 0.00370168, Final residual = 2.75174e-06, No Iterations 3
bounding k, min: 0 max: 0.110589 average: 0.073474
ExecutionTime = 33.37 s  ClockTime = 33 s

Time = 71

DILUPBiCG:  Solving for Ux, Initial residual = 0.00087329, Final residual = 7.03651e-07, No Iterations 2
DILUPBiCG:  Solving for Uy, Initial residual = 0.00206766, Final residual = 7.75832e-07, No Iterations 3
GAMG:  Solving for p, Initial residual = 0.0456578, Final residual = 3.68706e-05, No Iterations 11
GAMG:  Solving for p, Initial residual = 3.73626e-05, Final residual = 3.49838e-08, No Iterations 50
time step continuity errors : sum local = 4.18331e-09, global = -5.88684e-10, cumulative = 8.86496e-08
DILUPBiCG:  Solving for omega, Initial residual = 0.000126494, Final residual = 3.73522e-08, No Iterations 1
DILUPBiCG:  Solving for k, Initial residual = 0.00365327, Final residual = 3.48904e-06, No Iterations 3
bounding k, min: 0 max: 0.110614 average: 0.0732883
ExecutionTime = 33.76 s  ClockTime = 34 s

Time = 72

DILUPBiCG:  Solving for Ux, Initial residual = 0.000861918, Final residual = 6.96364e-07, No Iterations 2
DILUPBiCG:  Solving for Uy, Initial residual = 0.00212967, Final residual = 7.98754e-07, No Iterations 3
GAMG:  Solving for p, Initial residual = 0.0465845, Final residual = 3.85837e-05, No Iterations 11
GAMG:  Solving for p, Initial residual = 3.91615e-05, Final residual = 3.81202e-08, No Iterations 49
time step continuity errors : sum local = 4.57002e-09, global = 5.88177e-10, cumulative = 8.92378e-08
DILUPBiCG:  Solving for omega, Initial residual = 0.000124908, Final residual = 3.67545e-08, No Iterations 1
DILUPBiCG:  Solving for k, Initial residual = 0.00360738, Final residual = 3.42628e-06, No Iterations 3
bounding k, min: 0 max: 0.110637 average: 0.0731045
ExecutionTime = 34.15 s  ClockTime = 34 s

Time = 73

DILUPBiCG:  Solving for Ux, Initial residual = 0.000850852, Final residual = 6.89141e-07, No Iterations 2
DILUPBiCG:  Solving for Uy, Initial residual = 0.00215574, Final residual = 8.21018e-07, No Iterations 3
GAMG:  Solving for p, Initial residual = 0.0489667, Final residual = 3.92351e-05, No Iterations 11
GAMG:  Solving for p, Initial residual = 3.98953e-05, Final residual = 3.86248e-08, No Iterations 50
time step continuity errors : sum local = 4.63396e-09, global = -6.47191e-10, cumulative = 8.85906e-08
DILUPBiCG:  Solving for omega, Initial residual = 0.000123281, Final residual = 3.59876e-08, No Iterations 1
DILUPBiCG:  Solving for k, Initial residual = 0.00355967, Final residual = 4.96937e-07, No Iterations 2
bounding k, min: 0 max: 0.11066 average: 0.0729232
ExecutionTime = 34.55 s  ClockTime = 34 s

Time = 74

DILUPBiCG:  Solving for Ux, Initial residual = 0.000840079, Final residual = 6.82041e-07, No Iterations 2
DILUPBiCG:  Solving for Uy, Initial residual = 0.00214853, Final residual = 8.43406e-07, No Iterations 3
GAMG:  Solving for p, Initial residual = 0.0500929, Final residual = 3.95942e-05, No Iterations 11
GAMG:  Solving for p, Initial residual = 4.03292e-05, Final residual = 3.86981e-08, No Iterations 49
time step continuity errors : sum local = 4.63714e-09, global = 6.37328e-10, cumulative = 8.9228e-08
DILUPBiCG:  Solving for omega, Initial residual = 0.00012173, Final residual = 3.50296e-08, No Iterations 1
DILUPBiCG:  Solving for k, Initial residual = 0.00351727, Final residual = 2.76704e-06, No Iterations 2
bounding k, min: 0 max: 0.110683 average: 0.0727436
ExecutionTime = 34.94 s  ClockTime = 35 s

Time = 75

DILUPBiCG:  Solving for Ux, Initial residual = 0.000829589, Final residual = 6.74781e-07, No Iterations 2
DILUPBiCG:  Solving for Uy, Initial residual = 0.0021507, Final residual = 8.79027e-07, No Iterations 3
GAMG:  Solving for p, Initial residual = 0.0516308, Final residual = 4.03141e-05, No Iterations 11
GAMG:  Solving for p, Initial residual = 4.11295e-05, Final residual = 4.05932e-08, No Iterations 50
time step continuity errors : sum local = 4.84747e-09, global = -6.5937e-10, cumulative = 8.85686e-08
DILUPBiCG:  Solving for omega, Initial residual = 0.000120209, Final residual = 3.41703e-08, No Iterations 1
DILUPBiCG:  Solving for k, Initial residual = 0.0034708, Final residual = 2.44131e-06, No Iterations 2
bounding k, min: 0 max: 0.110704 average: 0.0725663
ExecutionTime = 35.34 s  ClockTime = 35 s

Time = 76

DILUPBiCG:  Solving for Ux, Initial residual = 0.000819376, Final residual = 6.67444e-07, No Iterations 2
DILUPBiCG:  Solving for Uy, Initial residual = 0.00217161, Final residual = 9.32011e-07, No Iterations 3
GAMG:  Solving for p, Initial residual = 0.0556528, Final residual = 4.11843e-05, No Iterations 11
GAMG:  Solving for p, Initial residual = 4.19821e-05, Final residual = 3.97802e-08, No Iterations 48
time step continuity errors : sum local = 4.74592e-09, global = -6.17865e-10, cumulative = 8.79507e-08
DILUPBiCG:  Solving for omega, Initial residual = 0.000118723, Final residual = 3.38149e-08, No Iterations 1
DILUPBiCG:  Solving for k, Initial residual = 0.00342832, Final residual = 6.55998e-07, No Iterations 4
bounding k, min: 0 max: 0.110725 average: 0.0723908
ExecutionTime = 35.74 s  ClockTime = 36 s

Time = 77

DILUPBiCG:  Solving for Ux, Initial residual = 0.000809459, Final residual = 6.59964e-07, No Iterations 2
DILUPBiCG:  Solving for Uy, Initial residual = 0.00202079, Final residual = 7.95948e-07, No Iterations 3
GAMG:  Solving for p, Initial residual = 0.0523535, Final residual = 3.97977e-05, No Iterations 11
GAMG:  Solving for p, Initial residual = 4.03956e-05, Final residual = 3.94909e-08, No Iterations 48
time step continuity errors : sum local = 4.74569e-09, global = -6.42739e-10, cumulative = 8.7308e-08
DILUPBiCG:  Solving for omega, Initial residual = 0.0001173, Final residual = 3.33396e-08, No Iterations 1
DILUPBiCG:  Solving for k, Initial residual = 0.00339109, Final residual = 2.99626e-07, No Iterations 4
bounding k, min: 0 max: 0.110746 average: 0.0722172
ExecutionTime = 36.13 s  ClockTime = 36 s

Time = 78

DILUPBiCG:  Solving for Ux, Initial residual = 0.000799811, Final residual = 6.52419e-07, No Iterations 2
DILUPBiCG:  Solving for Uy, Initial residual = 0.00189857, Final residual = 7.22887e-07, No Iterations 3
GAMG:  Solving for p, Initial residual = 0.0458846, Final residual = 3.77614e-05, No Iterations 11
GAMG:  Solving for p, Initial residual = 3.82066e-05, Final residual = 3.70915e-08, No Iterations 47
time step continuity errors : sum local = 4.48585e-09, global = 6.18208e-10, cumulative = 8.79262e-08
DILUPBiCG:  Solving for omega, Initial residual = 0.000115834, Final residual = 3.32898e-08, No Iterations 1
DILUPBiCG:  Solving for k, Initial residual = 0.0033534, Final residual = 2.37179e-07, No Iterations 4
bounding k, min: 0 max: 0.110766 average: 0.0720453
ExecutionTime = 36.52 s  ClockTime = 36 s

Time = 79

DILUPBiCG:  Solving for Ux, Initial residual = 0.000790401, Final residual = 6.44894e-07, No Iterations 2
DILUPBiCG:  Solving for Uy, Initial residual = 0.00190454, Final residual = 7.18877e-07, No Iterations 3
GAMG:  Solving for p, Initial residual = 0.0423351, Final residual = 3.73926e-05, No Iterations 11
GAMG:  Solving for p, Initial residual = 3.77908e-05, Final residual = 3.72223e-08, No Iterations 47
time step continuity errors : sum local = 4.52392e-09, global = 6.30182e-10, cumulative = 8.85564e-08
DILUPBiCG:  Solving for omega, Initial residual = 0.00011449, Final residual = 3.29202e-08, No Iterations 1
DILUPBiCG:  Solving for k, Initial residual = 0.00331901, Final residual = 1.53148e-07, No Iterations 4
bounding k, min: 0 max: 0.110785 average: 0.0718749
ExecutionTime = 36.91 s  ClockTime = 37 s

Time = 80

DILUPBiCG:  Solving for Ux, Initial residual = 0.000781212, Final residual = 6.37481e-07, No Iterations 2
DILUPBiCG:  Solving for Uy, Initial residual = 0.00194751, Final residual = 7.34716e-07, No Iterations 3
GAMG:  Solving for p, Initial residual = 0.0421262, Final residual = 3.78794e-05, No Iterations 11
GAMG:  Solving for p, Initial residual = 3.83164e-05, Final residual = 3.75959e-08, No Iterations 48
time step continuity errors : sum local = 4.58528e-09, global = -5.89456e-10, cumulative = 8.79669e-08
DILUPBiCG:  Solving for omega, Initial residual = 0.000113073, Final residual = 3.27847e-08, No Iterations 1
DILUPBiCG:  Solving for k, Initial residual = 0.00328459, Final residual = 5.62776e-08, No Iterations 4
bounding k, min: 0 max: 0.110804 average: 0.0717063
ExecutionTime = 37.3 s  ClockTime = 37 s

Time = 81

DILUPBiCG:  Solving for Ux, Initial residual = 0.000772243, Final residual = 6.30028e-07, No Iterations 2
DILUPBiCG:  Solving for Uy, Initial residual = 0.00197873, Final residual = 7.55552e-07, No Iterations 3
GAMG:  Solving for p, Initial residual = 0.0435862, Final residual = 3.85266e-05, No Iterations 11
GAMG:  Solving for p, Initial residual = 3.90233e-05, Final residual = 3.89963e-08, No Iterations 52
time step continuity errors : sum local = 4.76694e-09, global = -6.30767e-10, cumulative = 8.73362e-08
DILUPBiCG:  Solving for omega, Initial residual = 0.000111756, Final residual = 3.2236e-08, No Iterations 1
DILUPBiCG:  Solving for k, Initial residual = 0.00324924, Final residual = 2.0624e-08, No Iterations 4
bounding k, min: 0 max: 0.110822 average: 0.0715394
ExecutionTime = 37.71 s  ClockTime = 38 s

Time = 82

DILUPBiCG:  Solving for Ux, Initial residual = 0.000763485, Final residual = 6.22478e-07, No Iterations 2
DILUPBiCG:  Solving for Uy, Initial residual = 0.00197665, Final residual = 7.72892e-07, No Iterations 3
GAMG:  Solving for p, Initial residual = 0.0444231, Final residual = 3.9629e-05, No Iterations 11
GAMG:  Solving for p, Initial residual = 4.01847e-05, Final residual = 3.76475e-08, No Iterations 53
time step continuity errors : sum local = 4.60829e-09, global = 6.09111e-10, cumulative = 8.79453e-08
DILUPBiCG:  Solving for omega, Initial residual = 0.000110416, Final residual = 3.16488e-08, No Iterations 1
DILUPBiCG:  Solving for k, Initial residual = 0.00321422, Final residual = 1.09862e-08, No Iterations 4
bounding k, min: 0 max: 0.11084 average: 0.071374
ExecutionTime = 38.12 s  ClockTime = 38 s

Time = 83

DILUPBiCG:  Solving for Ux, Initial residual = 0.000754932, Final residual = 6.14772e-07, No Iterations 2
DILUPBiCG:  Solving for Uy, Initial residual = 0.00196606, Final residual = 7.9454e-07, No Iterations 3
GAMG:  Solving for p, Initial residual = 0.0442192, Final residual = 4.06498e-05, No Iterations 11
GAMG:  Solving for p, Initial residual = 4.12511e-05, Final residual = 4.10831e-08, No Iterations 53
time step continuity errors : sum local = 5.03108e-09, global = 6.59006e-10, cumulative = 8.86043e-08
DILUPBiCG:  Solving for omega, Initial residual = 0.000109162, Final residual = 3.11021e-08, No Iterations 1
DILUPBiCG:  Solving for k, Initial residual = 0.00317891, Final residual = 2.3795e-08, No Iterations 4
bounding k, min: 0 max: 0.110857 average: 0.0712103
ExecutionTime = 38.54 s  ClockTime = 38 s

Time = 84

DILUPBiCG:  Solving for Ux, Initial residual = 0.00074658, Final residual = 6.06895e-07, No Iterations 2
DILUPBiCG:  Solving for Uy, Initial residual = 0.00197311, Final residual = 8.25051e-07, No Iterations 3
GAMG:  Solving for p, Initial residual = 0.0458869, Final residual = 4.13217e-05, No Iterations 11
GAMG:  Solving for p, Initial residual = 4.19711e-05, Final residual = 3.94793e-08, No Iterations 53
time step continuity errors : sum local = 4.82804e-09, global = 6.21709e-10, cumulative = 8.9226e-08
DILUPBiCG:  Solving for omega, Initial residual = 0.000107892, Final residual = 3.04757e-08, No Iterations 1
DILUPBiCG:  Solving for k, Initial residual = 0.00314505, Final residual = 6.67054e-09, No Iterations 4
bounding k, min: 0 max: 0.110874 average: 0.0710482
ExecutionTime = 38.95 s  ClockTime = 39 s

Time = 85

DILUPBiCG:  Solving for Ux, Initial residual = 0.000738426, Final residual = 5.99069e-07, No Iterations 2
DILUPBiCG:  Solving for Uy, Initial residual = 0.00199121, Final residual = 8.6843e-07, No Iterations 3
GAMG:  Solving for p, Initial residual = 0.0489664, Final residual = 4.19266e-05, No Iterations 11
GAMG:  Solving for p, Initial residual = 4.25672e-05, Final residual = 4.12016e-08, No Iterations 56
time step continuity errors : sum local = 5.04255e-09, global = -6.74188e-10, cumulative = 8.85518e-08
DILUPBiCG:  Solving for omega, Initial residual = 0.000106617, Final residual = 3.01245e-08, No Iterations 1
DILUPBiCG:  Solving for k, Initial residual = 0.00311266, Final residual = 2.66446e-08, No Iterations 4
bounding k, min: 0 max: 0.11089 average: 0.0708876
ExecutionTime = 39.37 s  ClockTime = 39 s

Time = 86

DILUPBiCG:  Solving for Ux, Initial residual = 0.000730483, Final residual = 5.91174e-07, No Iterations 2
DILUPBiCG:  Solving for Uy, Initial residual = 0.00187778, Final residual = 7.62119e-07, No Iterations 3
GAMG:  Solving for p, Initial residual = 0.0468251, Final residual = 4.06595e-05, No Iterations 11
GAMG:  Solving for p, Initial residual = 4.11824e-05, Final residual = 4.05464e-08, No Iterations 57
time step continuity errors : sum local = 4.98779e-09, global = 6.68444e-10, cumulative = 8.92202e-08
DILUPBiCG:  Solving for omega, Initial residual = 0.000105424, Final residual = 2.97198e-08, No Iterations 1
DILUPBiCG:  Solving for k, Initial residual = 0.00307689, Final residual = 1.45246e-08, No Iterations 4
bounding k, min: 0 max: 0.110906 average: 0.0707287
ExecutionTime = 39.8 s  ClockTime = 40 s

Time = 87

DILUPBiCG:  Solving for Ux, Initial residual = 0.000722739, Final residual = 5.83393e-07, No Iterations 2
DILUPBiCG:  Solving for Uy, Initial residual = 0.00176927, Final residual = 6.9418e-07, No Iterations 3
GAMG:  Solving for p, Initial residual = 0.0410804, Final residual = 3.85786e-05, No Iterations 11
GAMG:  Solving for p, Initial residual = 3.90152e-05, Final residual = 3.81144e-08, No Iterations 58
time step continuity errors : sum local = 4.70643e-09, global = -6.36187e-10, cumulative = 8.8584e-08
DILUPBiCG:  Solving for omega, Initial residual = 0.000104227, Final residual = 2.94369e-08, No Iterations 1
DILUPBiCG:  Solving for k, Initial residual = 0.00304641, Final residual = 5.87013e-08, No Iterations 4
bounding k, min: 0 max: 0.110922 average: 0.0705714
ExecutionTime = 40.25 s  ClockTime = 40 s

Time = 88

DILUPBiCG:  Solving for Ux, Initial residual = 0.00071518, Final residual = 5.75879e-07, No Iterations 2
DILUPBiCG:  Solving for Uy, Initial residual = 0.00176235, Final residual = 6.87035e-07, No Iterations 3
GAMG:  Solving for p, Initial residual = 0.0370806, Final residual = 2.57663e-05, No Iterations 12
GAMG:  Solving for p, Initial residual = 2.60469e-05, Final residual = 2.48571e-08, No Iterations 61
time step continuity errors : sum local = 3.0792e-09, global = -4.27723e-10, cumulative = 8.81563e-08
DILUPBiCG:  Solving for omega, Initial residual = 0.000103049, Final residual = 2.90172e-08, No Iterations 1
DILUPBiCG:  Solving for k, Initial residual = 0.00301236, Final residual = 4.18633e-08, No Iterations 4
bounding k, min: 0 max: 0.110937 average: 0.0704157
ExecutionTime = 40.71 s  ClockTime = 41 s

Time = 89

DILUPBiCG:  Solving for Ux, Initial residual = 0.000707797, Final residual = 5.68748e-07, No Iterations 2
DILUPBiCG:  Solving for Uy, Initial residual = 0.00179007, Final residual = 6.98694e-07, No Iterations 3
GAMG:  Solving for p, Initial residual = 0.0353981, Final residual = 2.60482e-05, No Iterations 12
GAMG:  Solving for p, Initial residual = 2.63185e-05, Final residual = 2.49148e-08, No Iterations 60
time step continuity errors : sum local = 3.09949e-09, global = 4.29594e-10, cumulative = 8.85859e-08
DILUPBiCG:  Solving for omega, Initial residual = 0.000101889, Final residual = 2.86855e-08, No Iterations 1
DILUPBiCG:  Solving for k, Initial residual = 0.0029824, Final residual = 7.21053e-08, No Iterations 4
bounding k, min: 0 max: 0.110952 average: 0.0702616
ExecutionTime = 41.16 s  ClockTime = 41 s

Time = 90

DILUPBiCG:  Solving for Ux, Initial residual = 0.000700572, Final residual = 5.61925e-07, No Iterations 2
DILUPBiCG:  Solving for Uy, Initial residual = 0.00181415, Final residual = 7.15146e-07, No Iterations 3
GAMG:  Solving for p, Initial residual = 0.0358989, Final residual = 2.62192e-05, No Iterations 12
GAMG:  Solving for p, Initial residual = 2.64768e-05, Final residual = 2.57957e-08, No Iterations 59
time step continuity errors : sum local = 3.2224e-09, global = -4.46276e-10, cumulative = 8.81396e-08
DILUPBiCG:  Solving for omega, Initial residual = 0.000100705, Final residual = 2.83277e-08, No Iterations 1
DILUPBiCG:  Solving for k, Initial residual = 0.00295174, Final residual = 2.17024e-07, No Iterations 4
bounding k, min: 0 max: 0.110966 average: 0.0701089
ExecutionTime = 41.63 s  ClockTime = 42 s

Time = 91

DILUPBiCG:  Solving for Ux, Initial residual = 0.000693491, Final residual = 5.55214e-07, No Iterations 2
DILUPBiCG:  Solving for Uy, Initial residual = 0.00181371, Final residual = 7.28411e-07, No Iterations 3
GAMG:  Solving for p, Initial residual = 0.036619, Final residual = 2.5935e-05, No Iterations 12
GAMG:  Solving for p, Initial residual = 2.61834e-05, Final residual = 2.61289e-08, No Iterations 61
time step continuity errors : sum local = 3.27483e-09, global = -4.67109e-10, cumulative = 8.76725e-08
DILUPBiCG:  Solving for omega, Initial residual = 9.96009e-05, Final residual = 2.79215e-08, No Iterations 1
DILUPBiCG:  Solving for k, Initial residual = 0.00292151, Final residual = 1.73424e-07, No Iterations 4
bounding k, min: 0 max: 0.11098 average: 0.0699578
ExecutionTime = 42.1 s  ClockTime = 42 s

Time = 92

DILUPBiCG:  Solving for Ux, Initial residual = 0.000686548, Final residual = 5.48839e-07, No Iterations 2
DILUPBiCG:  Solving for Uy, Initial residual = 0.0018044, Final residual = 7.44407e-07, No Iterations 3
GAMG:  Solving for p, Initial residual = 0.0373057, Final residual = 2.53957e-05, No Iterations 12
GAMG:  Solving for p, Initial residual = 2.56508e-05, Final residual = 2.44068e-08, No Iterations 62
time step continuity errors : sum local = 3.06569e-09, global = 4.32711e-10, cumulative = 8.81052e-08
DILUPBiCG:  Solving for omega, Initial residual = 9.85091e-05, Final residual = 2.79667e-08, No Iterations 1
DILUPBiCG:  Solving for k, Initial residual = 0.00289295, Final residual = 1.00801e-07, No Iterations 4
bounding k, min: 0 max: 0.110994 average: 0.0698081
ExecutionTime = 42.56 s  ClockTime = 42 s

Time = 93

DILUPBiCG:  Solving for Ux, Initial residual = 0.00067975, Final residual = 5.42687e-07, No Iterations 2
DILUPBiCG:  Solving for Uy, Initial residual = 0.00180523, Final residual = 7.63972e-07, No Iterations 3
GAMG:  Solving for p, Initial residual = 0.0389836, Final residual = 3.72017e-05, No Iterations 11
GAMG:  Solving for p, Initial residual = 3.76003e-05, Final residual = 3.74706e-08, No Iterations 55
time step continuity errors : sum local = 4.71117e-09, global = 6.04942e-10, cumulative = 8.87102e-08
DILUPBiCG:  Solving for omega, Initial residual = 9.74026e-05, Final residual = 2.77532e-08, No Iterations 1
DILUPBiCG:  Solving for k, Initial residual = 0.00286223, Final residual = 2.76242e-06, No Iterations 3
bounding k, min: 0 max: 0.111007 average: 0.0696602
ExecutionTime = 43.01 s  ClockTime = 43 s

Time = 94

DILUPBiCG:  Solving for Ux, Initial residual = 0.000673094, Final residual = 5.36778e-07, No Iterations 2
DILUPBiCG:  Solving for Uy, Initial residual = 0.00181448, Final residual = 7.90713e-07, No Iterations 3
GAMG:  Solving for p, Initial residual = 0.0413543, Final residual = 3.65965e-05, No Iterations 11
GAMG:  Solving for p, Initial residual = 3.70318e-05, Final residual = 3.47978e-08, No Iterations 55
time step continuity errors : sum local = 4.37331e-09, global = 5.70498e-10, cumulative = 8.92807e-08
DILUPBiCG:  Solving for omega, Initial residual = 9.63028e-05, Final residual = 2.74988e-08, No Iterations 1
DILUPBiCG:  Solving for k, Initial residual = 0.00283649, Final residual = 1.85392e-06, No Iterations 3
bounding k, min: 0 max: 0.11102 average: 0.0695134
ExecutionTime = 43.43 s  ClockTime = 43 s

Time = 95

DILUPBiCG:  Solving for Ux, Initial residual = 0.000666582, Final residual = 5.31095e-07, No Iterations 2
[...]
bounding k, min: 0 max: 0.190587 average: 0.0542637
ExecutionTime = 185.8 s  ClockTime = 186 s

Time = 432

DILUPBiCG:  Solving for Ux, Initial residual = 0.000222206, Final residual = 2.72729e-08, No Iterations 3
DILUPBiCG:  Solving for Uy, Initial residual = 0.000249203, Final residual = 1.92267e-07, No Iterations 3
GAMG:  Solving for p, Initial residual = 0.00583849, Final residual = 5.38151e-06, No Iterations 13
GAMG:  Solving for p, Initial residual = 5.37049e-06, Final residual = 9.62825e-09, No Iterations 49
time step continuity errors : sum local = 1.77364e-09, global = -2.05355e-10, cumulative = 8.89237e-08
DILUPBiCG:  Solving for omega, Initial residual = 1.41009e-05, Final residual = 6.43576e-09, No Iterations 1
DILUPBiCG:  Solving for k, Initial residual = 0.000834641, Final residual = 7.55459e-07, No Iterations 3
bounding k, min: 0 max: 0.190794 average: 0.0542507
ExecutionTime = 186.35 s  ClockTime = 186 s

Time = 433

DILUPBiCG:  Solving for Ux, Initial residual = 0.000221854, Final residual = 2.74722e-08, No Iterations 3
DILUPBiCG:  Solving for Uy, Initial residual = 0.000248772, Final residual = 1.83464e-07, No Iterations 3
GAMG:  Solving for p, Initial residual = 0.00580105, Final residual = 5.3609e-06, No Iterations 13
GAMG:  Solving for p, Initial residual = 5.35007e-06, Final residual = 9.62633e-09, No Iterations 50
time step continuity errors : sum local = 1.77292e-09, global = 2.15194e-10, cumulative = 8.91389e-08
DILUPBiCG:  Solving for omega, Initial residual = 1.39785e-05, Final residual = 6.25822e-09, No Iterations 1
DILUPBiCG:  Solving for k, Initial residual = 0.000832255, Final residual = 1.60828e-07, No Iterations 4
bounding k, min: 0 max: 0.190995 average: 0.0542376
ExecutionTime = 186.97 s  ClockTime = 187 s

Time = 434

DILUPBiCG:  Solving for Ux, Initial residual = 0.000221501, Final residual = 2.74052e-08, No Iterations 3
DILUPBiCG:  Solving for Uy, Initial residual = 0.000248299, Final residual = 1.7498e-07, No Iterations 3
GAMG:  Solving for p, Initial residual = 0.00576788, Final residual = 5.39137e-06, No Iterations 13
GAMG:  Solving for p, Initial residual = 5.38064e-06, Final residual = 9.84302e-09, No Iterations 51
time step continuity errors : sum local = 1.81243e-09, global = -2.19738e-10, cumulative = 8.89192e-08
DILUPBiCG:  Solving for omega, Initial residual = 1.38512e-05, Final residual = 6.21098e-09, No Iterations 1
DILUPBiCG:  Solving for k, Initial residual = 0.000830391, Final residual = 2.31816e-07, No Iterations 4
bounding k, min: 0 max: 0.191191 average: 0.0542245
ExecutionTime = 187.56 s  ClockTime = 188 s

Time = 435

DILUPBiCG:  Solving for Ux, Initial residual = 0.000221148, Final residual = 2.75501e-08, No Iterations 3
DILUPBiCG:  Solving for Uy, Initial residual = 0.000247897, Final residual = 1.65804e-07, No Iterations 3
GAMG:  Solving for p, Initial residual = 0.00574843, Final residual = 5.38416e-06, No Iterations 13
GAMG:  Solving for p, Initial residual = 5.37358e-06, Final residual = 9.57904e-09, No Iterations 51
time step continuity errors : sum local = 1.76343e-09, global = -2.1289e-10, cumulative = 8.87063e-08
DILUPBiCG:  Solving for omega, Initial residual = 1.37339e-05, Final residual = 6.19499e-09, No Iterations 1
DILUPBiCG:  Solving for k, Initial residual = 0.00082799, Final residual = 1.78507e-07, No Iterations 4
bounding k, min: 0 max: 0.191379 average: 0.0542114
ExecutionTime = 188.1 s  ClockTime = 188 s

Time = 436

DILUPBiCG:  Solving for Ux, Initial residual = 0.000220794, Final residual = 2.74842e-08, No Iterations 3
DILUPBiCG:  Solving for Uy, Initial residual = 0.000247071, Final residual = 1.55947e-07, No Iterations 3
GAMG:  Solving for p, Initial residual = 0.00571413, Final residual = 5.42324e-06, No Iterations 13
GAMG:  Solving for p, Initial residual = 5.4127e-06, Final residual = 9.94469e-09, No Iterations 51
time step continuity errors : sum local = 1.83035e-09, global = -2.17536e-10, cumulative = 8.84888e-08
DILUPBiCG:  Solving for omega, Initial residual = 1.36138e-05, Final residual = 6.23477e-09, No Iterations 1
DILUPBiCG:  Solving for k, Initial residual = 0.000826469, Final residual = 1.99756e-07, No Iterations 4
bounding k, min: 0 max: 0.19156 average: 0.0541982
ExecutionTime = 188.65 s  ClockTime = 189 s

Time = 437

DILUPBiCG:  Solving for Ux, Initial residual = 0.00022044, Final residual = 2.77299e-08, No Iterations 3
DILUPBiCG:  Solving for Uy, Initial residual = 0.000246579, Final residual = 1.45257e-07, No Iterations 3
GAMG:  Solving for p, Initial residual = 0.00567785, Final residual = 5.43221e-06, No Iterations 13
GAMG:  Solving for p, Initial residual = 5.42179e-06, Final residual = 9.98272e-09, No Iterations 51
time step continuity errors : sum local = 1.83695e-09, global = -2.13801e-10, cumulative = 8.8275e-08
DILUPBiCG:  Solving for omega, Initial residual = 1.35009e-05, Final residual = 6.35782e-09, No Iterations 1
DILUPBiCG:  Solving for k, Initial residual = 0.000823852, Final residual = 1.73765e-07, No Iterations 4
bounding k, min: 0 max: 0.191775 average: 0.054185
ExecutionTime = 189.19 s  ClockTime = 189 s

Time = 438

DILUPBiCG:  Solving for Ux, Initial residual = 0.000220086, Final residual = 2.76382e-08, No Iterations 3
DILUPBiCG:  Solving for Uy, Initial residual = 0.000245924, Final residual = 1.33616e-07, No Iterations 3
GAMG:  Solving for p, Initial residual = 0.00563303, Final residual = 5.42587e-06, No Iterations 13
GAMG:  Solving for p, Initial residual = 5.41568e-06, Final residual = 9.85536e-09, No Iterations 50
time step continuity errors : sum local = 1.81304e-09, global = 2.13115e-10, cumulative = 8.84881e-08
DILUPBiCG:  Solving for omega, Initial residual = 1.33817e-05, Final residual = 6.42732e-09, No Iterations 1
DILUPBiCG:  Solving for k, Initial residual = 0.000821588, Final residual = 6.50415e-07, No Iterations 4
bounding k, min: 0 max: 0.192012 average: 0.0541718
ExecutionTime = 189.73 s  ClockTime = 190 s

Time = 439

DILUPBiCG:  Solving for Ux, Initial residual = 0.000219731, Final residual = 2.77832e-08, No Iterations 3
DILUPBiCG:  Solving for Uy, Initial residual = 0.000245333, Final residual = 1.19347e-07, No Iterations 3
GAMG:  Solving for p, Initial residual = 0.00561319, Final residual = 5.39433e-06, No Iterations 13
GAMG:  Solving for p, Initial residual = 5.38442e-06, Final residual = 9.30453e-09, No Iterations 50
time step continuity errors : sum local = 1.71123e-09, global = 2.02571e-10, cumulative = 8.86906e-08
DILUPBiCG:  Solving for omega, Initial residual = 1.32728e-05, Final residual = 6.42782e-09, No Iterations 1
DILUPBiCG:  Solving for k, Initial residual = 0.000819526, Final residual = 1.75893e-07, No Iterations 4
bounding k, min: 0 max: 0.192241 average: 0.0541585
ExecutionTime = 190.27 s  ClockTime = 190 s

Time = 440

DILUPBiCG:  Solving for Ux, Initial residual = 0.000219376, Final residual = 2.76925e-08, No Iterations 3
DILUPBiCG:  Solving for Uy, Initial residual = 0.000244734, Final residual = 1.02726e-07, No Iterations 3
GAMG:  Solving for p, Initial residual = 0.00558907, Final residual = 5.4254e-06, No Iterations 13
GAMG:  Solving for p, Initial residual = 5.41553e-06, Final residual = 9.76435e-09, No Iterations 50
time step continuity errors : sum local = 1.79533e-09, global = 2.07174e-10, cumulative = 8.88978e-08
DILUPBiCG:  Solving for omega, Initial residual = 1.31598e-05, Final residual = 6.3413e-09, No Iterations 1
DILUPBiCG:  Solving for k, Initial residual = 0.000817491, Final residual = 7.22524e-07, No Iterations 4
bounding k, min: 0 max: 0.192461 average: 0.0541451
ExecutionTime = 190.81 s  ClockTime = 191 s

Time = 441

DILUPBiCG:  Solving for Ux, Initial residual = 0.00021902, Final residual = 2.79921e-08, No Iterations 3
DILUPBiCG:  Solving for Uy, Initial residual = 0.000244193, Final residual = 7.95222e-08, No Iterations 3
GAMG:  Solving for p, Initial residual = 0.00554442, Final residual = 5.42422e-06, No Iterations 13
GAMG:  Solving for p, Initial residual = 5.4144e-06, Final residual = 9.52508e-09, No Iterations 51
time step continuity errors : sum local = 1.75089e-09, global = -2.09263e-10, cumulative = 8.86885e-08
DILUPBiCG:  Solving for omega, Initial residual = 1.30534e-05, Final residual = 6.10003e-09, No Iterations 1
DILUPBiCG:  Solving for k, Initial residual = 0.000815079, Final residual = 2.34702e-07, No Iterations 4
bounding k, min: 0 max: 0.192674 average: 0.0541318
ExecutionTime = 191.36 s  ClockTime = 191 s

Time = 442

DILUPBiCG:  Solving for Ux, Initial residual = 0.000218664, Final residual = 2.79505e-08, No Iterations 3
DILUPBiCG:  Solving for Uy, Initial residual = 0.000243732, Final residual = 4.99897e-08, No Iterations 3
GAMG:  Solving for p, Initial residual = 0.00551363, Final residual = 5.45219e-06, No Iterations 13
GAMG:  Solving for p, Initial residual = 5.44236e-06, Final residual = 9.12651e-09, No Iterations 51
time step continuity errors : sum local = 1.6772e-09, global = -1.96491e-10, cumulative = 8.84921e-08
DILUPBiCG:  Solving for omega, Initial residual = 1.29432e-05, Final residual = 6.02895e-09, No Iterations 1
DILUPBiCG:  Solving for k, Initial residual = 0.000812951, Final residual = 1.79048e-07, No Iterations 4
bounding k, min: 0 max: 0.19288 average: 0.0541184
ExecutionTime = 191.91 s  ClockTime = 192 s

Time = 443

DILUPBiCG:  Solving for Ux, Initial residual = 0.000218308, Final residual = 2.81259e-08, No Iterations 3
DILUPBiCG:  Solving for Uy, Initial residual = 0.000242903, Final residual = 8.32013e-08, No Iterations 3
GAMG:  Solving for p, Initial residual = 0.00548046, Final residual = 5.41525e-06, No Iterations 13
GAMG:  Solving for p, Initial residual = 5.40549e-06, Final residual = 9.91485e-09, No Iterations 49
time step continuity errors : sum local = 1.82162e-09, global = -1.94998e-10, cumulative = 8.82971e-08
DILUPBiCG:  Solving for omega, Initial residual = 1.28384e-05, Final residual = 5.90059e-09, No Iterations 1
DILUPBiCG:  Solving for k, Initial residual = 0.000811003, Final residual = 7.94161e-07, No Iterations 4
bounding k, min: 0 max: 0.193079 average: 0.0541049
ExecutionTime = 192.44 s  ClockTime = 193 s

Time = 444

DILUPBiCG:  Solving for Ux, Initial residual = 0.000217951, Final residual = 2.80962e-08, No Iterations 3
DILUPBiCG:  Solving for Uy, Initial residual = 0.000242326, Final residual = 1.90127e-07, No Iterations 3
GAMG:  Solving for p, Initial residual = 0.00544797, Final residual = 5.41038e-06, No Iterations 13
GAMG:  Solving for p, Initial residual = 5.40066e-06, Final residual = 9.1664e-09, No Iterations 49
time step continuity errors : sum local = 1.68369e-09, global = -1.7609e-10, cumulative = 8.8121e-08
DILUPBiCG:  Solving for omega, Initial residual = 1.27366e-05, Final residual = 5.7328e-09, No Iterations 1
DILUPBiCG:  Solving for k, Initial residual = 0.000808996, Final residual = 1.99803e-07, No Iterations 4
bounding k, min: 0 max: 0.193273 average: 0.0540914
ExecutionTime = 192.97 s  ClockTime = 193 s

Time = 445

DILUPBiCG:  Solving for Ux, Initial residual = 0.000217593, Final residual = 2.8359e-08, No Iterations 3
DILUPBiCG:  Solving for Uy, Initial residual = 0.000241414, Final residual = 1.44125e-08, No Iterations 4
GAMG:  Solving for p, Initial residual = 0.00540275, Final residual = 5.40065e-06, No Iterations 13
GAMG:  Solving for p, Initial residual = 5.39097e-06, Final residual = 9.50248e-09, No Iterations 49
time step continuity errors : sum local = 1.74497e-09, global = -1.83855e-10, cumulative = 8.79371e-08
DILUPBiCG:  Solving for omega, Initial residual = 1.26313e-05, Final residual = 5.77449e-09, No Iterations 1
DILUPBiCG:  Solving for k, Initial residual = 0.000806693, Final residual = 1.98159e-07, No Iterations 4
bounding k, min: 0 max: 0.193457 average: 0.0540779
ExecutionTime = 193.51 s  ClockTime = 194 s

Time = 446

DILUPBiCG:  Solving for Ux, Initial residual = 0.000217235, Final residual = 2.82813e-08, No Iterations 3
DILUPBiCG:  Solving for Uy, Initial residual = 0.000240947, Final residual = 1.21936e-08, No Iterations 4
GAMG:  Solving for p, Initial residual = 0.00536088, Final residual = 4.03187e-06, No Iterations 14
GAMG:  Solving for p, Initial residual = 4.0247e-06, Final residual = 9.72963e-09, No Iterations 49
time step continuity errors : sum local = 1.78617e-09, global = 2.01921e-10, cumulative = 8.8139e-08
DILUPBiCG:  Solving for omega, Initial residual = 1.25303e-05, Final residual = 5.70971e-09, No Iterations 1
DILUPBiCG:  Solving for k, Initial residual = 0.000804748, Final residual = 2.36304e-07, No Iterations 4
bounding k, min: 0 max: 0.193635 average: 0.0540643
ExecutionTime = 194.05 s  ClockTime = 194 s

Time = 447

DILUPBiCG:  Solving for Ux, Initial residual = 0.000216876, Final residual = 2.85251e-08, No Iterations 3
DILUPBiCG:  Solving for Uy, Initial residual = 0.00024049, Final residual = 1.08956e-08, No Iterations 4
GAMG:  Solving for p, Initial residual = 0.00530003, Final residual = 4.0252e-06, No Iterations 14
GAMG:  Solving for p, Initial residual = 4.01819e-06, Final residual = 9.03718e-09, No Iterations 49
time step continuity errors : sum local = 1.65852e-09, global = 1.81559e-10, cumulative = 8.83206e-08
DILUPBiCG:  Solving for omega, Initial residual = 1.24298e-05, Final residual = 5.81675e-09, No Iterations 1
DILUPBiCG:  Solving for k, Initial residual = 0.000802631, Final residual = 7.27848e-07, No Iterations 4
bounding k, min: 0 max: 0.193833 average: 0.0540507
ExecutionTime = 194.59 s  ClockTime = 195 s

Time = 448

DILUPBiCG:  Solving for Ux, Initial residual = 0.000216516, Final residual = 2.85129e-08, No Iterations 3
DILUPBiCG:  Solving for Uy, Initial residual = 0.000239764, Final residual = 1.00288e-08, No Iterations 4
GAMG:  Solving for p, Initial residual = 0.00525988, Final residual = 4.06761e-06, No Iterations 14
GAMG:  Solving for p, Initial residual = 4.06063e-06, Final residual = 9.69524e-09, No Iterations 49
time step continuity errors : sum local = 1.77873e-09, global = 1.92941e-10, cumulative = 8.85135e-08
DILUPBiCG:  Solving for omega, Initial residual = 1.23332e-05, Final residual = 5.76265e-09, No Iterations 1
DILUPBiCG:  Solving for k, Initial residual = 0.000800548, Final residual = 3.21945e-07, No Iterations 4
bounding k, min: 0 max: 0.194051 average: 0.054037
ExecutionTime = 195.14 s  ClockTime = 195 s

Time = 449

DILUPBiCG:  Solving for Ux, Initial residual = 0.000216157, Final residual = 2.88057e-08, No Iterations 3
DILUPBiCG:  Solving for Uy, Initial residual = 0.000238843, Final residual = 9.28562e-09, No Iterations 4
GAMG:  Solving for p, Initial residual = 0.00522436, Final residual = 4.02922e-06, No Iterations 14
GAMG:  Solving for p, Initial residual = 4.02235e-06, Final residual = 9.3708e-09, No Iterations 49
time step continuity errors : sum local = 1.71873e-09, global = 1.84062e-10, cumulative = 8.86976e-08
DILUPBiCG:  Solving for omega, Initial residual = 1.22362e-05, Final residual = 5.85948e-09, No Iterations 1
DILUPBiCG:  Solving for k, Initial residual = 0.0007984, Final residual = 1.86751e-07, No Iterations 4
bounding k, min: 0 max: 0.194262 average: 0.0540233
ExecutionTime = 195.69 s  ClockTime = 196 s

Time = 450

DILUPBiCG:  Solving for Ux, Initial residual = 0.000215798, Final residual = 2.87488e-08, No Iterations 3
DILUPBiCG:  Solving for Uy, Initial residual = 0.000238, Final residual = 8.72492e-09, No Iterations 4
GAMG:  Solving for p, Initial residual = 0.00517013, Final residual = 4.03831e-06, No Iterations 14
GAMG:  Solving for p, Initial residual = 4.03144e-06, Final residual = 9.17177e-09, No Iterations 50
time step continuity errors : sum local = 1.68177e-09, global = -1.86804e-10, cumulative = 8.85108e-08
DILUPBiCG:  Solving for omega, Initial residual = 1.21383e-05, Final residual = 5.83973e-09, No Iterations 1
DILUPBiCG:  Solving for k, Initial residual = 0.000796357, Final residual = 5.43431e-07, No Iterations 4
bounding k, min: 0 max: 0.19447 average: 0.0540096
ExecutionTime = 196.24 s  ClockTime = 196 s

Time = 451

DILUPBiCG:  Solving for Ux, Initial residual = 0.000215437, Final residual = 2.89781e-08, No Iterations 3
DILUPBiCG:  Solving for Uy, Initial residual = 0.000237604, Final residual = 8.33454e-09, No Iterations 4
GAMG:  Solving for p, Initial residual = 0.00513561, Final residual = 4.05296e-06, No Iterations 14
GAMG:  Solving for p, Initial residual = 4.04618e-06, Final residual = 9.4158e-09, No Iterations 51
time step continuity errors : sum local = 1.726e-09, global = 1.90463e-10, cumulative = 8.87013e-08
DILUPBiCG:  Solving for omega, Initial residual = 1.20455e-05, Final residual = 5.79108e-09, No Iterations 1
DILUPBiCG:  Solving for k, Initial residual = 0.000794505, Final residual = 3.07879e-07, No Iterations 4
bounding k, min: 0 max: 0.194673 average: 0.0539958
ExecutionTime = 196.82 s  ClockTime = 197 s

Time = 452

DILUPBiCG:  Solving for Ux, Initial residual = 0.000215077, Final residual = 2.89843e-08, No Iterations 3
DILUPBiCG:  Solving for Uy, Initial residual = 0.000236839, Final residual = 8.29586e-09, No Iterations 4
GAMG:  Solving for p, Initial residual = 0.00507984, Final residual = 4.04501e-06, No Iterations 14
GAMG:  Solving for p, Initial residual = 4.03836e-06, Final residual = 9.65262e-09, No Iterations 50
time step continuity errors : sum local = 1.76885e-09, global = -1.85125e-10, cumulative = 8.85161e-08
DILUPBiCG:  Solving for omega, Initial residual = 1.19483e-05, Final residual = 5.80168e-09, No Iterations 1
DILUPBiCG:  Solving for k, Initial residual = 0.000792419, Final residual = 4.2629e-07, No Iterations 2
bounding k, min: 0 max: 0.194873 average: 0.053982
ExecutionTime = 197.37 s  ClockTime = 198 s

Time = 453

DILUPBiCG:  Solving for Ux, Initial residual = 0.000214716, Final residual = 2.92554e-08, No Iterations 3
DILUPBiCG:  Solving for Uy, Initial residual = 0.000235982, Final residual = 8.29285e-09, No Iterations 4
GAMG:  Solving for p, Initial residual = 0.00502507, Final residual = 4.04588e-06, No Iterations 14
GAMG:  Solving for p, Initial residual = 4.03927e-06, Final residual = 9.75706e-09, No Iterations 50
time step continuity errors : sum local = 1.78747e-09, global = -1.92872e-10, cumulative = 8.83233e-08
DILUPBiCG:  Solving for omega, Initial residual = 1.18569e-05, Final residual = 5.80268e-09, No Iterations 1
DILUPBiCG:  Solving for k, Initial residual = 0.00079055, Final residual = 2.24465e-07, No Iterations 4
bounding k, min: 0 max: 0.195068 average: 0.053968
ExecutionTime = 197.94 s  ClockTime = 198 s

Time = 454

DILUPBiCG:  Solving for Ux, Initial residual = 0.000214356, Final residual = 2.92475e-08, No Iterations 3
DILUPBiCG:  Solving for Uy, Initial residual = 0.000235217, Final residual = 8.30951e-09, No Iterations 4
GAMG:  Solving for p, Initial residual = 0.00497589, Final residual = 4.08637e-06, No Iterations 14
GAMG:  Solving for p, Initial residual = 4.07968e-06, Final residual = 9.68473e-09, No Iterations 51
time step continuity errors : sum local = 1.77375e-09, global = 1.97168e-10, cumulative = 8.85204e-08
DILUPBiCG:  Solving for omega, Initial residual = 1.17634e-05, Final residual = 5.64238e-09, No Iterations 1
DILUPBiCG:  Solving for k, Initial residual = 0.000788274, Final residual = 7.57117e-07, No Iterations 4
bounding k, min: 0 max: 0.195259 average: 0.0539541
ExecutionTime = 198.52 s  ClockTime = 199 s

Time = 455

DILUPBiCG:  Solving for Ux, Initial residual = 0.000213995, Final residual = 2.9571e-08, No Iterations 3
DILUPBiCG:  Solving for Uy, Initial residual = 0.000234295, Final residual = 8.33659e-09, No Iterations 4
GAMG:  Solving for p, Initial residual = 0.0049239, Final residual = 4.09878e-06, No Iterations 14
GAMG:  Solving for p, Initial residual = 4.09204e-06, Final residual = 9.55739e-09, No Iterations 51
time step continuity errors : sum local = 1.74998e-09, global = 1.89093e-10, cumulative = 8.87095e-08
DILUPBiCG:  Solving for omega, Initial residual = 1.16732e-05, Final residual = 5.65756e-09, No Iterations 1
